[TITLE]
;;Project Title/Notes

[OPTIONS]
;;Option             Value
FLOW_UNITS           CMS
INFILTRATION         HORTON
FLOW_ROUTING         DYNWAVE
LINK_OFFSETS         DEPTH
MIN_SLOPE            0
ALLOW_PONDING        YES
SKIP_STEADY_STATE    NO

START_DATE           08/28/2015
START_TIME           00:00
REPORT_START_DATE    08/28/2015
REPORT_START_TIME    00:00
END_DATE             08/28/2015
END_TIME             23:40
SWEEP_START          01/01
SWEEP_END            12/31
DRY_DAYS             0
REPORT_STEP          00:01:00
WET_STEP             00:01:00
DRY_STEP             00:01:00
ROUTING_STEP         0:00:05 
RULE_STEP            00:00:00

INERTIAL_DAMPING     PARTIAL
NORMAL_FLOW_LIMITED  BOTH
FORCE_MAIN_EQUATION  H-W
VARIABLE_STEP        0.75
LENGTHENING_STEP     0
MIN_SURFAREA         1.167
MAX_TRIALS           8
HEAD_TOLERANCE       0.0015
SYS_FLOW_TOL         5
LAT_FLOW_TOL         5
MINIMUM_STEP         0.5
THREADS              1

[EVAPORATION]
;;Data Source    Parameters
;;-------------- ----------------
CONSTANT         0.0
DRY_ONLY         NO

[RAINGAGES]
;;Name           Format    Interval SCF      Source    
;;-------------- --------- ------ ------ ----------
RG1              VOLUME 0:01     1.0      TIMESERIES RG1Oneyear-2h      
RG2              VOLUME 0:01     1.0      TIMESERIES RG2Oneyear-2h      
RG3              VOLUME 0:01     1.0      TIMESERIES RG3Oneyear-2h      
RG4              VOLUME 0:01     1.0      TIMESERIES RG4Oneyear-2h      

[SUBCATCHMENTS]
;;Name           Rain Gage        Outlet           Area     %Imperv  Width    %Slope   CurbLen  SnowPack        
;;-------------- ---------------- ---------------- -------- -------- -------- -------- -------- ----------------
SC01             RG4              J16              33       100      2400     0.8      0.0                      
SC02             RG3              J13              22.75    100      1500     0.8      0                        
SC03             RG1              J10              18       100      2000     0.5      0                        
SC04             RG3              J5               6.9      100      200      0.7      0                        
SC05             RG4              J1               15.6     100      1000     0.5      0                        
SC06             RG2              J8               32.55    100      985      0.5      0                        
SC07             RG3              CSO7             4.75     100      360      0.51     0                        
SC08             RG1              CSO8             28       100      1950     0.45     0                        
SC09             RG2              CSO9             6.9      100      650      0.4      0                        
SC010            RG4              CSO10            11.75    100      650      0.5      0                        

[SUBAREAS]
;;Subcatchment   N-Imperv   N-Perv     S-Imperv   S-Perv     PctZero    RouteTo    PctRouted 
;;-------------- ---------- ---------- ---------- ---------- ---------- ---------- ----------
SC01             0.009      0.10       0.05       0.05       0.0        OUTLET    
SC02             0.009      0.1        0.05       0.05       0          OUTLET    
SC03             0.007      0.1        0.05       0.05       0          OUTLET    
SC04             0.009      0.1        0.05       0.05       0          OUTLET    
SC05             0.007      0.1        0.05       0.05       0          OUTLET    
SC06             0.01       0.1        0.05       0.05       0          OUTLET    
SC07             0.02       0.1        0.05       0.05       0          OUTLET    
SC08             0.01       0.1        0.05       0.05       0          OUTLET    
SC09             0.016      0.1        0.05       0.05       0          OUTLET    
SC010            0.008      0.1        0.05       0.05       0          OUTLET    

[INFILTRATION]
;;Subcatchment   MaxRate    MinRate    Decay      DryTime    MaxInfil  
;;-------------- ---------- ---------- ---------- ---------- ----------
SC01             3.0        0.5        4          7          0         
SC02             3.0        0.5        4          7          0         
SC03             3.0        0.5        4          7          0         
SC04             3.0        0.5        4          7          0         
SC05             3.0        0.5        4          7          0         
SC06             3.0        0.5        4          7          0         
SC07             3.0        0.5        4          7          0         
SC08             3.0        0.5        4          7          0         
SC09             3.0        0.5        4          7          0         
SC010            3.0        0.5        4          7          0         

[JUNCTIONS]
;;Name           Elevation  MaxDepth   InitDepth  SurDepth   Aponded   
;;-------------- ---------- ---------- ---------- ---------- ----------
J1               34.000000  2          0.000000   05.000000  0.000000  
J3               18.000000  2          0.000000   0.000000   0.000000  
CSO7             34.00000   1.2        0.000000   0.000000   0.000     
J5               32.00000   2.000000   0.000000   0.000000   0.000000  
CSO9             40.000000  2          0.000000   0.000000   0.000000  
J8               36.000000  3.000000   0.000000   0.000000   0.000000  
CSO8             32.000000  2          0.000000   0.00000    0.00000   
J10              29.000000  2.000000   0.000000   0.000000   0.000000  
J13              29.000000  2.000000   0.000000   0.000000   0.000000  
J15              15.000000  3.000000   0.000000   0.000000   0.000000  
J16              30.000000  2.000000   0.000000   0.000000   0.000000  
CSO10            30.000000  1.00000    0.000000   0.000000   0.000000  
J12              26.000000  2.000000   0.000000   0.000000   0.000000  
J4               33         2.0        0.00000    0.00000    0.00000   
J6               25         2          0.0000     0.0000     0.0000    
J2               25         2          0.00000    0.00000    0.00000   
J19              8          2          0.0000     0.0000     0.0000    
J9               29         2          0.0000     0.0000     0.0000    
J14              20         2          0.0000     0.0000     0.0000    
J17              20         2          0.0000     0.0000     0.0000    
J7               39         2          0.00000    0.00000    0.00000   
J11              31         2          0.0000     0.0000     0.0000    
J18              29         2          0.0000     0.0000     0.0000    

[OUTFALLS]
;;Name           Elevation  Type       Stage Data       Gated    Route To        
;;-------------- ---------- ---------- ---------------- -------- ----------------
Out_to_WWTP      6          FREE                        NO                       

[STORAGE]
;;Name           Elev.    MaxDepth   InitDepth  Shape      Curve Name/Params            N/A      Fevap    Psi      Ksat     IMD     
;;-------------- -------- ---------- ----------- ---------- ---------------------------- -------- --------          -------- --------
T5               27.000000 5.000000   0.000000   TABULAR    Tank5                        0.000000 0.000000
T4               27.000000 5.000000   0.000000   TABULAR    Tank4                        0.000000 0.000000
T6               31.000000 5.000000   0.000000   TABULAR    Tank6                        0        0       
T3               22.000000 5.000000   0.000000   TABULAR    Tank3                        0.000000 0.000000
T2               21.000000 5.000000   0.000000   TABULAR    Tank2                        0.000000 0.000000
T1               10.000000 5.000000   0.000000   TABULAR    Tank1                        0.000000 0.000000

[CONDUITS]
;;Name           From Node        To Node          Length     Roughness  InOffset   OutOffset  InitFlow   MaxFlow   
;;-------------- ---------------- ---------------- ---------- ---------- ---------- ---------- ---------- ----------
C1               J2               J3               400        0.013      0.00000    0.00000    0.00000    0         
C6               J4               J5               400        0.01       0.00000    0.00000    0.00000    0         
C2               J6               J3               400        0.012      0.00000    0.00000    0.00000    0         
C9               J7               J8               500        0.013      0.00000    0.00000    0.00000    0         
C16              J11              J10              500        0.012      0.0000     0.0000     0.00000    0         
C3               J14              J3               200        0.012      0.000      0.000      0.00000    0         
C19              J17              J15              400        0.012      0.00000    0.00000    0.00000    0         
C11              J3               J15              200        0.012      0.0000     0.0000     0.00000    0         
C20              J16              J15              400        0.012      0.0000     0.0000     0.00000    0         
C22              J18              J15              500        0.013      0.0000     0.0000     0.00000    0         
C12              J9               J12              500        0.012      0.00000    0.00000    0.00000    0         
C17              J10              J12              200        0.012      0.0000     0.0000     0.00000    0         
C10              J8               T6               310.5      0.012      0.00000    0.00000    0.00000    0         
C13              J12              T3               375        0.012      0          0          0.00000    0         
C18              J13              T2               257        0.013      0.0000     0.0000     0.00000    0         
C23              J15              T1               305        0.013      0.0000     0.0000     0.00000    0         
C4               J1               T5               278        0.012      0.0000     0.0000     0.00000    0         
C7               J5               T4               204        0.012      0.00000    0.00000    0.00000    0         
C14              J19              Out_to_WWTP      200        0.011      0.0000     0.0000     0.0000     0         
C5               CSO7             J4               100        0.014      0.0000     0.0000     0.0000     0         
C8               CSO9             J7               100        0.0185     0.0000     0.0000     0.00000    0         
C15              CSO8             J11              100        0.012      0.0000     0.0000     0.0000     0         
C21              CSO10            J18              100        0.02       0.00000    0.00000    0.00000    0         

[ORIFICES]
;;Name           From Node        To Node          Type         Offset     Qcoeff     Gated    CloseTime 
;;-------------- ---------------- ---------------- ------------ ---------- ---------- -------- ----------
V4               T4               J6               SIDE         0.00000    1          NO       0         
V5               T5               J2               SIDE         0.0000     1          NO       0         
V1               T1               J19              SIDE         0.00000    1          NO       0         
V6               T6               J9               SIDE         0.0000     1          NO       0         
V3               T3               J14              SIDE         0.0000     1          NO       0         
V2               T2               J17              SIDE         0.0000     1          NO       0         

[XSECTIONS]
;;Link           Shape        Geom1            Geom2      Geom3      Geom4      Barrels    Culvert   
;;-------------- ------------ ---------------- ---------- ---------- ---------- ---------- ----------
C1               CIRCULAR     1                0          0          0          1                    
C6               CIRCULAR     0.3              0          0          0          1                    
C2               CIRCULAR     0.6              0          0          0          1                    
C9               CIRCULAR     0.5              0          0          0          1                    
C16              CIRCULAR     2                0          0          0          1                    
C3               CIRCULAR     1                0          0          0          1                    
C19              CIRCULAR     1                0          0          0          1                    
C11              CIRCULAR     2                0          0          0          1                    
C20              CIRCULAR     2                0          0          0          1                    
C22              CIRCULAR     0.8              0          0          0          1                    
C12              CIRCULAR     2                0          0          0          1                    
C17              CIRCULAR     2                0          0          0          1                    
C10              CIRCULAR     1.5              0          0          0          1                    
C13              CIRCULAR     2                0          0          0          1                    
C18              CIRCULAR     2                0          0          0          1                    
C23              CIRCULAR     1.5              0          0          0          1                    
C4               CIRCULAR     1                0          0          0          1                    
C7               CIRCULAR     1                0          0          0          1                    
C14              CIRCULAR     2                0          0          0          1                    
C5               CIRCULAR     0.2555           0          0          0          1                    
C8               CIRCULAR     0.318            0          0          0          1                    
C15              CIRCULAR     0.453            0          0          0          1                    
C21              CIRCULAR     0.44             0          0          0          1                    
V4               RECT_CLOSED  0.0264           0.3048     0          0
V5               RECT_CLOSED  0.013            0.3048     0          0
V1               RECT_CLOSED  0.09             0.3048     0          0
V6               RECT_CLOSED  0.0581           0.3048     0          0
V3               RECT_CLOSED  0.063            0.3048     0          0
V2               RECT_CLOSED  0.0465           0.3048     0          0

[LOSSES]
;;Link           Kentry     Kexit      Kavg       Flap Gate  Seepage   
;;-------------- ---------- ---------- ---------- ---------- ----------
C1               0.00000    0.00000    0.00000    NO         0.00000   
C6               0.00000    0.00000    0.00000    NO         0.00000   
C2               0.00000    0.00000    0.00000    NO         0.00000   
C9               0.00000    0.00000    0.00000    NO         0.00000   
C16              0.00000    0.00000    0.00000    NO         0         
C3               0.00000    0.00000    0.00000    NO         0         
C19              0.00000    0.00000    0.00000    NO         0.00000   
C11              0.00000    0.00000    0.00000    NO         0.00000   
C20              0.00000    0.00000    0.00000    NO         0.0000    
C22              0.00000    0.00000    0.00000    NO         0.0000    
C12              0.00000    0.00000    0.00000    NO         0.00000   
C17              0.00000    0.00000    0.00000    NO         0.0000    
C10              0.00000    0.00000    0.00000    NO         0.00000   
C13              0.00000    0.00000    0.00000    NO         0         
C18              0.00000    0.00000    0.00000    NO         0.0000    
C23              0.00000    0.00000    0.00000    NO         0.0000    
C4               0.00000    0.00000    0.00000    NO         0.00000   
C7               0.00000    0.00000    0.00000    NO         0.00000   
C14              0.0000     0.0000     0.0000     NO         0.0000    
C5               0.00000    0.00000    0.00000    NO         0.00000   
C8               0.00000    0.00000    0.00000    NO         0.00000   
C15              0.0000     0.0000     0.0000     NO         0.0000    
C21              0.00000    0.00000    0.00000    NO         0.00000   

[CONTROLS]
RULE R0
IF SIMULATION TIME > 0
THEN ORIFICE V1 SETTING = TIMESERIES pump_0

RULE R1
IF SIMULATION TIME > 0
THEN ORIFICE V2 SETTING = TIMESERIES pump_1

RULE R2
IF SIMULATION TIME > 0
THEN ORIFICE V3 SETTING = TIMESERIES pump_2

RULE R3
IF SIMULATION TIME > 0
THEN ORIFICE V4 SETTING = TIMESERIES pump_3

RULE R4
IF SIMULATION TIME > 0
THEN ORIFICE V5 SETTING = TIMESERIES pump_4

RULE R5
IF SIMULATION TIME > 0
THEN ORIFICE V6 SETTING = TIMESERIES pump_5



[DWF]
;;Node           Constituent      Baseline   Patterns  
;;-------------- ---------------- ---------- ----------
J1               FLOW             0.01269    "" "DWF"
CSO7             FLOW             0.00656    "" "DWF"
J5               FLOW             0.00288    "" "DWF"
CSO9             FLOW             0.00443    "" "DWF"
J8               FLOW             0.02126    "" "DWF"
CSO8             FLOW             0.00518    "DWFCommercial0"
J10              FLOW             0.00871    "" "DWF"
J13              FLOW             0.01056    "" "DWF"
J16              FLOW             0.01251    "" "DWF"
CSO10            FLOW             0.00314    "" "DWF"

[CURVES]
;;Name           Type       X-Value    Y-Value   
;;-------------- ---------- ---------- ----------
Tank1            Storage    0          140       
Tank1                       5          140       
;
Tank2            Storage    0          200       
Tank2                       5          200       
;
Tank3            Storage    0          520       
Tank3                       5          520       
;
Tank4            Storage    0          100       
Tank4                       5          100       
;
Tank5            Storage    0          100       
Tank5                       5          100       
;
Tank6            Storage    0          120       
Tank6                       5          120       

[TIMESERIES]
;;Name           Date       Time       Value     
;;-------------- ---------- ---------- ----------
pump_0           8/28/2015  00:10      0.16288132133647937
pump_0           8/28/2015  00:20      0.0
pump_0           8/28/2015  00:30      0.29291038311348866
pump_0           8/28/2015  00:40      0.05346411762079395
pump_0           8/28/2015  00:50      0.3123222481003276
pump_0           8/28/2015  01:00      0.0
pump_0           8/28/2015  01:10      0.0
pump_0           8/28/2015  01:20      0.1292517000814357
pump_0           8/28/2015  01:30      0.0
pump_0           8/28/2015  01:40      0.0490271158485418
pump_0           8/28/2015  01:50      0.1060542587904469
pump_0           8/28/2015  02:00      0.2639717023149622
pump_0           8/28/2015  02:10      0.0
pump_0           8/28/2015  02:20      0.15421927629608723
pump_0           8/28/2015  02:30      0.014561500462355737
pump_0           8/28/2015  02:40      0.2218477559004406
pump_0           8/28/2015  02:50      0.0
pump_0           8/28/2015  03:00      0.0
pump_0           8/28/2015  03:10      0.06068286671329433
pump_0           8/28/2015  03:20      0.23343170500845456
pump_0           8/28/2015  03:30      0.19097659067484948
pump_0           8/28/2015  03:40      0.06315158301338193
pump_0           8/28/2015  03:50      0.0
pump_0           8/28/2015  04:00      0.0
pump_0           8/28/2015  04:10      0.0
pump_0           8/28/2015  04:20      0.20732671059740204
pump_0           8/28/2015  04:30      0.19784870036259378
pump_0           8/28/2015  04:40      0.003740126646199027
pump_0           8/28/2015  04:50      0.202829606612294
pump_0           8/28/2015  05:00      0.7943941954229788
pump_0           8/28/2015  05:10      0.013566665453782979
pump_0           8/28/2015  05:20      0.10909707389359738
pump_0           8/28/2015  05:30      0.0
pump_0           8/28/2015  05:40      0.03839605755338171
pump_0           8/28/2015  05:50      0.015078252448253338
pump_0           8/28/2015  06:00      0.29825681733600456
pump_0           8/28/2015  06:10      0.25744732030382145
pump_0           8/28/2015  06:20      0.05559897063085022
pump_0           8/28/2015  06:30      0.06892009025952617
pump_0           8/28/2015  06:40      0.0
pump_0           8/28/2015  06:50      0.26184930776456067
pump_0           8/28/2015  07:00      0.08825426453416628
pump_0           8/28/2015  07:10      0.09593592397972431
pump_0           8/28/2015  07:20      0.0
pump_0           8/28/2015  07:30      0.0
pump_0           8/28/2015  07:40      0.0459452633244927
pump_0           8/28/2015  07:50      0.2484472776384998
pump_0           8/28/2015  08:00      0.2549952446602359
pump_0           8/28/2015  08:10      0.11327983900007998
pump_0           8/28/2015  08:20      0.0
pump_0           8/28/2015  08:30      0.22340054054366296
pump_0           8/28/2015  08:40      0.13776209727956729
pump_0           8/28/2015  08:50      0.2868813277310835
pump_0           8/28/2015  09:00      0.010406014906244999
pump_0           8/28/2015  09:10      0.23497835915085294
pump_0           8/28/2015  09:20      0.0394088471125063
pump_0           8/28/2015  09:30      0.0
pump_0           8/28/2015  09:40      0.2575846433425417
pump_0           8/28/2015  09:50      0.008510126582397382
pump_0           8/28/2015  10:00      0.0
pump_0           8/28/2015  10:10      0.2688026073312773
pump_0           8/28/2015  10:20      0.21281472606951315
pump_0           8/28/2015  10:30      0.11451966157596068
pump_0           8/28/2015  10:40      0.055062473959725855
pump_0           8/28/2015  10:50      0.0
pump_0           8/28/2015  11:00      0.0
pump_0           8/28/2015  11:10      0.01920831582664846
pump_0           8/28/2015  11:20      0.10849491903071051
pump_0           8/28/2015  11:30      0.0
pump_0           8/28/2015  11:40      0.0549283390653757
pump_0           8/28/2015  11:50      0.2606690136229157
pump_0           8/28/2015  12:00      0.06963716236999193
pump_0           8/28/2015  12:10      0.1123437181813861
pump_0           8/28/2015  12:20      0.0
pump_0           8/28/2015  12:30      0.09830465172839445
pump_0           8/28/2015  12:40      0.11146181290615549
pump_0           8/28/2015  12:50      0.03245022139521061
pump_0           8/28/2015  13:00      0.0
pump_0           8/28/2015  13:10      0.37261226997737057
pump_0           8/28/2015  13:20      0.7196450591847168
pump_0           8/28/2015  13:30      0.10257460776046341
pump_0           8/28/2015  13:40      0.0
pump_0           8/28/2015  13:50      0.08564122229448362
pump_0           8/28/2015  14:00      0.2862972198878651
pump_0           8/28/2015  14:10      0.014711055331503832
pump_0           8/28/2015  14:20      0.014079474359124912
pump_0           8/28/2015  14:30      0.24847020629384478
pump_0           8/28/2015  14:40      0.008558848360802784
pump_0           8/28/2015  14:50      0.0
pump_0           8/28/2015  15:00      0.16793229429147263
pump_0           8/28/2015  15:10      0.23313007286355036
pump_0           8/28/2015  15:20      0.2805417707845979
pump_0           8/28/2015  15:30      0.10001157626163076
pump_0           8/28/2015  15:40      0.0
pump_0           8/28/2015  15:50      0.06307907788822176
pump_0           8/28/2015  16:00      0.0685383481294148
pump_0           8/28/2015  16:10      0.10999304444638525
pump_0           8/28/2015  16:20      0.0
pump_0           8/28/2015  16:30      0.043436508623010524
pump_0           8/28/2015  16:40      0.05419023883636949
pump_0           8/28/2015  16:50      0.19030545880123634
pump_0           8/28/2015  17:00      0.26391877287117826
pump_0           8/28/2015  17:10      0.08430847898655412
pump_0           8/28/2015  17:20      0.0
pump_0           8/28/2015  17:30      0.0
pump_0           8/28/2015  17:40      0.0
pump_0           8/28/2015  17:50      0.2407825792768744
pump_0           8/28/2015  18:00      0.11966783328217004
pump_0           8/28/2015  18:10      0.0
pump_0           8/28/2015  18:20      0.08650269948382246
pump_0           8/28/2015  18:30      0.24630369728933751
pump_0           8/28/2015  18:40      0.4242272438964157
pump_0           8/28/2015  18:50      0.19878724799908257
pump_0           8/28/2015  19:00      0.023069985929917627
pump_0           8/28/2015  19:10      0.0
pump_0           8/28/2015  19:20      0.26242017317333316
pump_0           8/28/2015  19:30      0.07496518180460213
pump_0           8/28/2015  19:40      0.23327450843455977
pump_0           8/28/2015  19:50      0.07152231244596781
pump_0           8/28/2015  20:00      0.07399890742958992
pump_0           8/28/2015  20:10      0.0
pump_0           8/28/2015  20:20      0.0
pump_0           8/28/2015  20:30      0.19637456903739914
pump_0           8/28/2015  20:40      0.15645768195538934
pump_0           8/28/2015  20:50      0.16118489476715525
pump_0           8/28/2015  21:00      0.0
pump_0           8/28/2015  21:10      0.10638666366620089
pump_0           8/28/2015  21:20      0.1568237665273934
pump_0           8/28/2015  21:30      0.2867868897878534
pump_0           8/28/2015  21:40      0.23350085185391223
pump_0           8/28/2015  21:50      0.017054045533470143
pump_0           8/28/2015  22:00      0.0
pump_0           8/28/2015  22:10      0.012814693287090019
pump_0           8/28/2015  22:20      0.0
pump_0           8/28/2015  22:30      0.2756335167960711
pump_0           8/28/2015  22:40      0.17462825725945447
pump_0           8/28/2015  22:50      0.28626993249568167
pump_0           8/28/2015  23:00      0.06753016240324299
pump_0           8/28/2015  23:10      0.27751416616320135
pump_0           8/28/2015  23:20      0.0014874347102328935
pump_0           8/28/2015  23:30      0.10311330343012975
;
pump_1           8/28/2015  00:10      0.30713713694123385
pump_1           8/28/2015  00:20      0.0
pump_1           8/28/2015  00:30      0.12844841100610718
pump_1           8/28/2015  00:40      0.0
pump_1           8/28/2015  00:50      0.6043826503680014
pump_1           8/28/2015  01:00      0.0
pump_1           8/28/2015  01:10      0.0
pump_1           8/28/2015  01:20      0.5584336652779534
pump_1           8/28/2015  01:30      0.1081096966633665
pump_1           8/28/2015  01:40      0.004508448421578278
pump_1           8/28/2015  01:50      0.13041265373968033
pump_1           8/28/2015  02:00      0.0
pump_1           8/28/2015  02:10      0.10909088089773249
pump_1           8/28/2015  02:20      0.13459098928388202
pump_1           8/28/2015  02:30      0.0
pump_1           8/28/2015  02:40      0.20842014834638992
pump_1           8/28/2015  02:50      0.04456006694574696
pump_1           8/28/2015  03:00      0.0
pump_1           8/28/2015  03:10      0.22970868602693367
pump_1           8/28/2015  03:20      0.08813124073862226
pump_1           8/28/2015  03:30      0.21638030433702224
pump_1           8/28/2015  03:40      0.21702833461075058
pump_1           8/28/2015  03:50      0.0
pump_1           8/28/2015  04:00      0.2997215752610194
pump_1           8/28/2015  04:10      0.5727643009042348
pump_1           8/28/2015  04:20      0.21287395170947124
pump_1           8/28/2015  04:30      0.03706320421316676
pump_1           8/28/2015  04:40      0.6826254118059768
pump_1           8/28/2015  04:50      0.1329666195210861
pump_1           8/28/2015  05:00      0.0
pump_1           8/28/2015  05:10      0.0
pump_1           8/28/2015  05:20      0.31618227347466404
pump_1           8/28/2015  05:30      0.30262226513189816
pump_1           8/28/2015  05:40      0.023182157982469788
pump_1           8/28/2015  05:50      0.7029550465239387
pump_1           8/28/2015  06:00      0.6656653373872605
pump_1           8/28/2015  06:10      0.22863865620696042
pump_1           8/28/2015  06:20      0.30595214335310156
pump_1           8/28/2015  06:30      0.6606522728564602
pump_1           8/28/2015  06:40      0.2170201216125125
pump_1           8/28/2015  06:50      0.250139532900054
pump_1           8/28/2015  07:00      0.15383281547733552
pump_1           8/28/2015  07:10      0.13789848063241728
pump_1           8/28/2015  07:20      0.06932889658856922
pump_1           8/28/2015  07:30      0.2967125035215517
pump_1           8/28/2015  07:40      0.005615297154110851
pump_1           8/28/2015  07:50      0.0
pump_1           8/28/2015  08:00      0.1151091477461301
pump_1           8/28/2015  08:10      0.41253937544723684
pump_1           8/28/2015  08:20      0.13009208817702034
pump_1           8/28/2015  08:30      0.35854494953796534
pump_1           8/28/2015  08:40      0.0
pump_1           8/28/2015  08:50      0.023662431217761796
pump_1           8/28/2015  09:00      0.20101973840943788
pump_1           8/28/2015  09:10      0.07641729888822751
pump_1           8/28/2015  09:20      0.0
pump_1           8/28/2015  09:30      0.08867034027471171
pump_1           8/28/2015  09:40      0.10791094058482407
pump_1           8/28/2015  09:50      0.0
pump_1           8/28/2015  10:00      0.20251395194584515
pump_1           8/28/2015  10:10      0.09910865230399785
pump_1           8/28/2015  10:20      0.1985710488552882
pump_1           8/28/2015  10:30      0.27573681892369134
pump_1           8/28/2015  10:40      0.0
pump_1           8/28/2015  10:50      0.11003006178807746
pump_1           8/28/2015  11:00      0.004077207460431745
pump_1           8/28/2015  11:10      0.09911780501327197
pump_1           8/28/2015  11:20      0.19975321343978092
pump_1           8/28/2015  11:30      0.6239007681073567
pump_1           8/28/2015  11:40      0.024202500612645984
pump_1           8/28/2015  11:50      0.4339118581373482