[TITLE]
;;Project Title/Notes

[OPTIONS]
;;Option             Value
FLOW_UNITS           CMS
INFILTRATION         HORTON
FLOW_ROUTING         DYNWAVE
LINK_OFFSETS         DEPTH
MIN_SLOPE            0
ALLOW_PONDING        YES
SKIP_STEADY_STATE    NO

START_DATE           08/28/2015
START_TIME           08:00
REPORT_START_DATE    08/28/2015
REPORT_START_TIME    08:00
END_DATE             08/28/2015
END_TIME             15:50
SWEEP_START          01/01
SWEEP_END            12/31
DRY_DAYS             0
REPORT_STEP          00:01:00
WET_STEP             00:01:00
DRY_STEP             00:01:00
ROUTING_STEP         0:00:05 
RULE_STEP            00:00:00

INERTIAL_DAMPING     PARTIAL
NORMAL_FLOW_LIMITED  BOTH
FORCE_MAIN_EQUATION  H-W
VARIABLE_STEP        0.75
LENGTHENING_STEP     0
MIN_SURFAREA         1.167
MAX_TRIALS           8
HEAD_TOLERANCE       0.0015
SYS_FLOW_TOL         5
LAT_FLOW_TOL         5
MINIMUM_STEP         0.5
THREADS              1

[EVAPORATION]
;;Data Source    Parameters
;;-------------- ----------------
CONSTANT         0.0
DRY_ONLY         NO

[RAINGAGES]
;;Name           Format    Interval SCF      Source    
;;-------------- --------- ------ ------ ----------
RG1              INTENSITY 0:01     1.0      TIMESERIES Oneyear-2h      
RG2              INTENSITY 0:01     1.0      TIMESERIES Oneyear-2h      
RG3              INTENSITY 0:01     1.0      TIMESERIES Oneyear-2h      
RG4              INTENSITY 0:01     1.0      TIMESERIES Oneyear-2h      

[SUBCATCHMENTS]
;;Name           Rain Gage        Outlet           Area     %Imperv  Width    %Slope   CurbLen  SnowPack        
;;-------------- ---------------- ---------------- -------- -------- -------- -------- -------- ----------------
SC01             RG4              J16              33       100      2400     0.8      0.0                      
SC02             RG3              J13              22.75    100      1500     0.8      0                        
SC03             RG1              J10              18       100      2000     0.5      0                        
SC04             RG3              J5               6.9      100      200      0.7      0                        
SC05             RG4              J1               15.6     100      1000     0.5      0                        
SC06             RG2              J8               32.55    100      985      0.5      0                        
SC07             RG3              CSO7             4.75     100      360      0.51     0                        
SC08             RG1              CSO8             28       100      1950     0.45     0                        
SC09             RG2              CSO9             6.9      100      650      0.4      0                        
SC010            RG4              CSO10            11.75    100      650      0.5      0                        

[SUBAREAS]
;;Subcatchment   N-Imperv   N-Perv     S-Imperv   S-Perv     PctZero    RouteTo    PctRouted 
;;-------------- ---------- ---------- ---------- ---------- ---------- ---------- ----------
SC01             0.009      0.10       0.05       0.05       0.0        OUTLET    
SC02             0.009      0.1        0.05       0.05       0          OUTLET    
SC03             0.007      0.1        0.05       0.05       0          OUTLET    
SC04             0.009      0.1        0.05       0.05       0          OUTLET    
SC05             0.007      0.1        0.05       0.05       0          OUTLET    
SC06             0.01       0.1        0.05       0.05       0          OUTLET    
SC07             0.02       0.1        0.05       0.05       0          OUTLET    
SC08             0.01       0.1        0.05       0.05       0          OUTLET    
SC09             0.016      0.1        0.05       0.05       0          OUTLET    
SC010            0.008      0.1        0.05       0.05       0          OUTLET    

[INFILTRATION]
;;Subcatchment   MaxRate    MinRate    Decay      DryTime    MaxInfil  
;;-------------- ---------- ---------- ---------- ---------- ----------
SC01             3.0        0.5        4          7          0         
SC02             3.0        0.5        4          7          0         
SC03             3.0        0.5        4          7          0         
SC04             3.0        0.5        4          7          0         
SC05             3.0        0.5        4          7          0         
SC06             3.0        0.5        4          7          0         
SC07             3.0        0.5        4          7          0         
SC08             3.0        0.5        4          7          0         
SC09             3.0        0.5        4          7          0         
SC010            3.0        0.5        4          7          0         

[JUNCTIONS]
;;Name           Elevation  MaxDepth   InitDepth  SurDepth   Aponded   
;;-------------- ---------- ---------- ---------- ---------- ----------
J1               34.000000  2          0.000000   05.000000  0.000000  
J3               18.000000  2          0.000000   0.000000   0.000000  
CSO7             34.00000   1.2        0.000000   0.000000   0.000     
J5               32.00000   2.000000   0.000000   0.000000   0.000000  
CSO9             40.000000  2          0.000000   0.000000   0.000000  
J8               36.000000  3.000000   0.000000   0.000000   0.000000  
CSO8             32.000000  2          0.000000   0.00000    0.00000   
J10              29.000000  2.000000   0.000000   0.000000   0.000000  
J13              29.000000  2.000000   0.000000   0.000000   0.000000  
J15              15.000000  3.000000   0.000000   0.000000   0.000000  
J16              30.000000  2.000000   0.000000   0.000000   0.000000  
CSO10            30.000000  1.00000    0.000000   0.000000   0.000000  
J12              26.000000  2.000000   0.000000   0.000000   0.000000  
J4               33         2.0        0.00000    0.00000    0.00000   
J6               25         2          0.0000     0.0000     0.0000    
J2               25         2          0.00000    0.00000    0.00000   
J19              8          2          0.0000     0.0000     0.0000    
J9               29         2          0.0000     0.0000     0.0000    
J14              20         2          0.0000     0.0000     0.0000    
J17              20         2          0.0000     0.0000     0.0000    
J7               39         2          0.00000    0.00000    0.00000   
J11              31         2          0.0000     0.0000     0.0000    
J18              29         2          0.0000     0.0000     0.0000    

[OUTFALLS]
;;Name           Elevation  Type       Stage Data       Gated    Route To        
;;-------------- ---------- ---------- ---------------- -------- ----------------
Out_to_WWTP      6          FREE                        NO                       

[STORAGE]
;;Name           Elev.    MaxDepth   InitDepth  Shape      Curve Name/Params            N/A      Fevap    Psi      Ksat     IMD     
;;-------------- -------- ---------- ----------- ---------- ---------------------------- -------- --------          -------- --------
T5               27.000000 5.000000   0.000000   TABULAR    Tank5                        0.000000 0.000000
T4               27.000000 5.000000   0.000000   TABULAR    Tank4                        0.000000 0.000000
T6               31.000000 5.000000   0.000000   TABULAR    Tank6                        0        0       
T3               22.000000 5.000000   0.000000   TABULAR    Tank3                        0.000000 0.000000
T2               21.000000 5.000000   0.000000   TABULAR    Tank2                        0.000000 0.000000
T1               10.000000 5.000000   0.000000   TABULAR    Tank1                        0.000000 0.000000

[CONDUITS]
;;Name           From Node        To Node          Length     Roughness  InOffset   OutOffset  InitFlow   MaxFlow   
;;-------------- ---------------- ---------------- ---------- ---------- ---------- ---------- ---------- ----------
C1               J2               J3               400        0.013      0.00000    0.00000    0.00000    0         
C6               J4               J5               400        0.01       0.00000    0.00000    0.00000    0         
C2               J6               J3               400        0.012      0.00000    0.00000    0.00000    0         
C9               J7               J8               500        0.013      0.00000    0.00000    0.00000    0         
C16              J11              J10              500        0.012      0.0000     0.0000     0.00000    0         
C3               J14              J3               200        0.012      0.000      0.000      0.00000    0         
C19              J17              J15              400        0.012      0.00000    0.00000    0.00000    0         
C11              J3               J15              200        0.012      0.0000     0.0000     0.00000    0         
C20              J16              J15              400        0.012      0.0000     0.0000     0.00000    0         
C22              J18              J15              500        0.013      0.0000     0.0000     0.00000    0         
C12              J9               J12              500        0.012      0.00000    0.00000    0.00000    0         
C17              J10              J12              200        0.012      0.0000     0.0000     0.00000    0         
C10              J8               T6               310.5      0.012      0.00000    0.00000    0.00000    0         
C13              J12              T3               375        0.012      0          0          0.00000    0         
C18              J13              T2               257        0.013      0.0000     0.0000     0.00000    0         
C23              J15              T1               305        0.013      0.0000     0.0000     0.00000    0         
C4               J1               T5               278        0.012      0.0000     0.0000     0.00000    0         
C7               J5               T4               204        0.012      0.00000    0.00000    0.00000    0         
C14              J19              Out_to_WWTP      200        0.011      0.0000     0.0000     0.0000     0         
C5               CSO7             J4               100        0.014      0.0000     0.0000     0.0000     0         
C8               CSO9             J7               100        0.0185     0.0000     0.0000     0.00000    0         
C15              CSO8             J11              100        0.012      0.0000     0.0000     0.0000     0         
C21              CSO10            J18              100        0.02       0.00000    0.00000    0.00000    0         

[ORIFICES]
;;Name           From Node        To Node          Type         Offset     Qcoeff     Gated    CloseTime 
;;-------------- ---------------- ---------------- ------------ ---------- ---------- -------- ----------
V4               T4               J6               SIDE         0.00000    1          NO       0         
V5               T5               J2               SIDE         0.0000     1          NO       0         
V1               T1               J19              SIDE         0.00000    1          NO       0         
V6               T6               J9               SIDE         0.0000     1          NO       0         
V3               T3               J14              SIDE         0.0000     1          NO       0         
V2               T2               J17              SIDE         0.0000     1          NO       0         

[XSECTIONS]
;;Link           Shape        Geom1            Geom2      Geom3      Geom4      Barrels    Culvert   
;;-------------- ------------ ---------------- ---------- ---------- ---------- ---------- ----------
C1               CIRCULAR     1                0          0          0          1                    
C6               CIRCULAR     0.3              0          0          0          1                    
C2               CIRCULAR     0.6              0          0          0          1                    
C9               CIRCULAR     0.5              0          0          0          1                    
C16              CIRCULAR     2                0          0          0          1                    
C3               CIRCULAR     1                0          0          0          1                    
C19              CIRCULAR     1                0          0          0          1                    
C11              CIRCULAR     2                0          0          0          1                    
C20              CIRCULAR     2                0          0          0          1                    
C22              CIRCULAR     0.8              0          0          0          1                    
C12              CIRCULAR     2                0          0          0          1                    
C17              CIRCULAR     2                0          0          0          1                    
C10              CIRCULAR     1.5              0          0          0          1                    
C13              CIRCULAR     2                0          0          0          1                    
C18              CIRCULAR     2                0          0          0          1                    
C23              CIRCULAR     1.5              0          0          0          1                    
C4               CIRCULAR     1                0          0          0          1                    
C7               CIRCULAR     1                0          0          0          1                    
C14              CIRCULAR     2                0          0          0          1                    
C5               CIRCULAR     0.2555           0          0          0          1                    
C8               CIRCULAR     0.318            0          0          0          1                    
C15              CIRCULAR     0.453            0          0          0          1                    
C21              CIRCULAR     0.44             0          0          0          1                    
V4               RECT_CLOSED  0.0264           0.3048     0          0
V5               RECT_CLOSED  0.013            0.3048     0          0
V1               RECT_CLOSED  0.09             0.3048     0          0
V6               RECT_CLOSED  0.0581           0.3048     0          0
V3               RECT_CLOSED  0.063            0.3048     0          0
V2               RECT_CLOSED  0.0465           0.3048     0          0

[LOSSES]
;;Link           Kentry     Kexit      Kavg       Flap Gate  Seepage   
;;-------------- ---------- ---------- ---------- ---------- ----------
C1               0.00000    0.00000    0.00000    NO         0.00000   
C6               0.00000    0.00000    0.00000    NO         0.00000   
C2               0.00000    0.00000    0.00000    NO         0.00000   
C9               0.00000    0.00000    0.00000    NO         0.00000   
C16              0.00000    0.00000    0.00000    NO         0         
C3               0.00000    0.00000    0.00000    NO         0         
C19              0.00000    0.00000    0.00000    NO         0.00000   
C11              0.00000    0.00000    0.00000    NO         0.00000   
C20              0.00000    0.00000    0.00000    NO         0.0000    
C22              0.00000    0.00000    0.00000    NO         0.0000    
C12              0.00000    0.00000    0.00000    NO         0.00000   
C17              0.00000    0.00000    0.00000    NO         0.0000    
C10              0.00000    0.00000    0.00000    NO         0.00000   
C13              0.00000    0.00000    0.00000    NO         0         
C18              0.00000    0.00000    0.00000    NO         0.0000    
C23              0.00000    0.00000    0.00000    NO         0.0000    
C4               0.00000    0.00000    0.00000    NO         0.00000   
C7               0.00000    0.00000    0.00000    NO         0.00000   
C14              0.0000     0.0000     0.0000     NO         0.0000    
C5               0.00000    0.00000    0.00000    NO         0.00000   
C8               0.00000    0.00000    0.00000    NO         0.00000   
C15              0.0000     0.0000     0.0000     NO         0.0000    
C21              0.00000    0.00000    0.00000    NO         0.00000   

[CONTROLS]
RULE R0
IF SIMULATION TIME > 0
THEN ORIFICE V1 SETTING = TIMESERIES pump_0

RULE R1
IF SIMULATION TIME > 0
THEN ORIFICE V2 SETTING = TIMESERIES pump_1

RULE R2
IF SIMULATION TIME > 0
THEN ORIFICE V3 SETTING = TIMESERIES pump_2

RULE R3
IF SIMULATION TIME > 0
THEN ORIFICE V4 SETTING = TIMESERIES pump_3

RULE R4
IF SIMULATION TIME > 0
THEN ORIFICE V5 SETTING = TIMESERIES pump_4

RULE R5
IF SIMULATION TIME > 0
THEN ORIFICE V6 SETTING = TIMESERIES pump_5



[DWF]
;;Node           Constituent      Baseline   Patterns  
;;-------------- ---------------- ---------- ----------
J1               FLOW             0.01269    "" "DWF"
CSO7             FLOW             0.00656    "" "DWF"
J5               FLOW             0.00288    "" "DWF"
CSO9             FLOW             0.00443    "" "DWF"
J8               FLOW             0.02126    "" "DWF"
CSO8             FLOW             0.00518    "DWFCommercial0"
J10              FLOW             0.00871    "" "DWF"
J13              FLOW             0.01056    "" "DWF"
J16              FLOW             0.01251    "" "DWF"
CSO10            FLOW             0.00314    "" "DWF"

[CURVES]
;;Name           Type       X-Value    Y-Value   
;;-------------- ---------- ---------- ----------
Tank1            Storage    0          140       
Tank1                       5          140       
;
Tank2            Storage    0          200       
Tank2                       5          200       
;
Tank3            Storage    0          520       
Tank3                       5          520       
;
Tank4            Storage    0          100       
Tank4                       5          100       
;
Tank5            Storage    0          100       
Tank5                       5          100       
;
Tank6            Storage    0          120       
Tank6                       5          120       

[TIMESERIES]
;;Name           Date       Time       Value     
;;-------------- ---------- ---------- ----------
pump_0           8/28/2015  08:10      1.9451646660093238
pump_0           8/28/2015  08:20      2.0448876854881557
pump_0           8/28/2015  08:30      1.6220353986848353
pump_0           8/28/2015  08:40      1.9804586290814492
pump_0           8/28/2015  08:50      1.7957088552216391
pump_0           8/28/2015  09:00      1.8955661165861317
pump_0           8/28/2015  09:10      2.121449859565529
pump_0           8/28/2015  09:20      1.9713604415035553
pump_0           8/28/2015  09:30      1.893002077151063
pump_0           8/28/2015  09:40      1.7189482577078334
pump_0           8/28/2015  09:50      1.9800762409119899
pump_0           8/28/2015  10:00      1.9673438734223452
pump_0           8/28/2015  10:10      1.9644978056708582
pump_0           8/28/2015  10:20      1.942668086723569
pump_0           8/28/2015  10:30      1.9629311537302097
pump_0           8/28/2015  10:40      1.8389135399185395
pump_0           8/28/2015  10:50      1.9279552438370215
pump_0           8/28/2015  11:00      1.7379893922258014
pump_0           8/28/2015  11:10      1.8556925624934757
pump_0           8/28/2015  11:20      1.9506414785061772
pump_0           8/28/2015  11:30      2.0052988340126072
pump_0           8/28/2015  11:40      1.9529300102691325
pump_0           8/28/2015  11:50      1.8568026027355624
pump_0           8/28/2015  12:00      1.9234284962855956
pump_0           8/28/2015  12:10      1.8736949764013349
pump_0           8/28/2015  12:20      1.8308614498145794
pump_0           8/28/2015  12:30      1.8523108229748102
pump_0           8/28/2015  12:40      2.037058714285515
pump_0           8/28/2015  12:50      1.990508489350638
pump_0           8/28/2015  13:00      1.890847716310767
pump_0           8/28/2015  13:10      1.9772174651940717
pump_0           8/28/2015  13:20      1.962988069320492
pump_0           8/28/2015  13:30      2.052841500212008
pump_0           8/28/2015  13:40      1.9241834034390601
pump_0           8/28/2015  13:50      1.7774558396416857
pump_0           8/28/2015  14:00      1.9179528841703068
pump_0           8/28/2015  14:10      1.9970494601109223
pump_0           8/28/2015  14:20      1.9123157742375625
pump_0           8/28/2015  14:30      1.8011400617905413
pump_0           8/28/2015  14:40      1.8587248884088425
pump_0           8/28/2015  14:50      1.7457234904058878
pump_0           8/28/2015  15:00      1.881847571427013
pump_0           8/28/2015  15:10      1.8668202736523365
pump_0           8/28/2015  15:20      1.8392956756005658
pump_0           8/28/2015  15:30      2.0637666629297233
pump_0           8/28/2015  15:40      1.826330083266686
;
pump_1           8/28/2015  08:10      1.181764666009324
pump_1           8/28/2015  08:20      1.2814876854881556
pump_1           8/28/2015  08:30      0.8586353986848353
pump_1           8/28/2015  08:40      1.2170586290814494
pump_1           8/28/2015  08:50      1.032308855221639
pump_1           8/28/2015  09:00      1.1321661165861316
pump_1           8/28/2015  09:10      1.358049859565529
pump_1           8/28/2015  09:20      1.2079604415035552
pump_1           8/28/2015  09:30      1.000502077151063
pump_1           8/28/2015  09:40      0.8264482577078335
pump_1           8/28/2015  09:50      1.0875762409119898
pump_1           8/28/2015  10:00      1.074843873422345
pump_1           8/28/2015  10:10      1.0719978056708581
pump_1           8/28/2015  10:20      1.050168086723569
pump_1           8/28/2015  10:30      1.0704311537302098
pump_1           8/28/2015  10:40      0.9464135399185395
pump_1           8/28/2015  10:50      1.1645552438370215
pump_1           8/28/2015  11:00      0.9745893922258013
pump_1           8/28/2015  11:10      1.0922925624934756
pump_1           8/28/2015  11:20      1.1872414785061771
pump_1           8/28/2015  11:30      1.2418988340126071
pump_1           8/28/2015  11:40      1.1895300102691324
pump_1           8/28/2015  11:50      1.0934026027355626
pump_1           8/28/2015  12:00      1.1600284962855958
pump_1           8/28/2015  12:10      1.1102949764013348
pump_1           8/28/2015  12:20      1.0674614498145796
pump_1           8/28/2015  12:30      1.0889108229748101
pump_1           8/28/2015  12:40      1.2736587142855151
pump_1           8/28/2015  12:50      1.2271084893506379
pump_1           8/28/2015  13:00      1.127447716310767
pump_1           8/28/2015  13:10      1.2138174651940716
pump_1           8/28/2015  13:20      1.199588069320492
pump_1           8/28/2015  13:30      1.289441500212008
pump_1           8/28/2015  13:40      1.16078340343906
pump_1           8/28/2015  13:50      1.0140558396416857
pump_1           8/28/2015  14:00      1.154552884170307
pump_1           8/28/2015  14:10      1.2336494601109222
pump_1           8/28/2015  14:20      1.1489157742375624
pump_1           8/28/2015  14:30      1.0377400617905412
pump_1           8/28/2015  14:40      1.0953248884088427
pump_1           8/28/2015  14:50      0.982323490405888
pump_1           8/28/2015  15:00      1.118447571427013
pump_1           8/28/2015  15:10      1.1034202736523364
pump_1           8/28/2015  15:20      1.0758956756005658
pump_1           8/28/2015  15:30      1.3003666629297232
pump_1           8/28/2015  15:40      1.0629300832666861
;
pump_2           8/28/2015  08:10      1.595964666009324
pump_2           8/28/2015  08:20      1.6956876854881557
pump_2           8/28/2015  08:30      1.2728353986848353
pump_2           8/28/2015  08:40      1.6312586290814495
pump_2           8/28/2015  08:50      1.1116088552216392
pump_2           8/28/2015  09:00      1.2114661165861318
pump_2           8/28/2015  09:10      1.4373498595655292
pump_2           8/28/2015  09:20      1.2872604415035553
pump_2           8/28/2015  09:30      1.5438020771510632
pump_2           8/28/2015  09:40      1.3697482577078335
pump_2           8/28/2015  09:50      1.63087624091199
pump_2           8/28/2015  10:00      1.6181438734223452
pump_2           8/28/2015  10:10      1.6152978056708582
pump_2           8/28/2015  10:20      1.593468086723569
pump_2           8/28/2015  10:30      1.61373115373021
pump_2           8/28/2015  10:40      1.4897135399185395
pump_2           8/28/2015  10:50      1.2438552438370214
pump_2           8/28/2015  11:00      1.0538893922258012
pump_2           8/28/2015  11:10      1.1715925624934758
pump_2           8/28/2015  11:20      1.2665414785061773
pump_2           8/28/2015  11:30      1.3211988340126073
pump_2           8/28/2015  11:40      1.2688300102691323
pump_2           8/28/2015  11:50      1.1727026027355625
pump_2           8/28/2015  12:00      1.2393284962855957
pump_2           8/28/2015  12:10      1.189594976401335
pump_2           8/28/2015  12:20      1.1467614498145795
pump_2           8/28/2015  12:30      1.16821082297481
pump_2           8/28/2015  12:40      1.3529587142855153
pump_2           8/28/2015  12:50      1.306408489350638
pump_2           8/28/2015  13:00      1.2067477163107672
pump_2           8/28/2015  13:10      1.2931174651940718
pump_2           8/28/2015  13:20      1.278888069320492
pump_2           8/28/2015  13:30      1.3687415002120082
pump_2           8/28/2015  13:40      1.24008340343906
pump_2           8/28/2015  13:50      1.0933558396416856
pump_2           8/28/2015  14:00      1.233852884170307
pump_2           8/28/2015  14:10      1.6478494601109224
pump_2           8/28/2015  14:20      1.5631157742375625
pump_2           8/28/2015  14:30      1.4519400617905414
pump_2           8/28/2015  14:40      1.5095248884088428
pump_2           8/28/2015  14:50      1.396523490405888
pump_2           8/28/2015  15:00      1.5326475714270131
pump_2           8/28/2015  15:10      1.5176202736523365
pump_2           8/28/2015  15:20      1.4900956756005659
pump_2           8/28/2015  15:30      1.7145666629297234
pump_2           8/28/2015  15:40      1.4771300832666863
;
pump_3           8/28/2015  08:10      1.1345646660093238
pump_3           8/28/2015  08:20      1.2342876854881557
pump_3           8/28/2015  08:30      0.8114353986848353
pump_3           8/28/2015  08:40      1.1698586290814492
pump_3           8/28/2015  08:50      0.9851088552216392
pump_3           8/28/2015  09:00      1.0849661165861317
pump_3           8/28/2015  09:10      1.3108498595655291
pump_3           8/28/2015  09:20      1.1607604415035553
pump_3           8/28/2015  09:30      1.082402077151063
pump_3           8/28/2015  09:40      0.9083482577078335
pump_3           8/28/2015  09:50      1.1694762409119899
pump_3           8/28/2015  10:00      1.1567438734223452
pump_3           8/28/2015  10:10      1.1538978056708582
pump_3           8/28/2015  10:20      1.132068086723569
pump_3           8/28/2015  10:30      1.1523311537302097
pump_3           8/28/2015  10:40      1.0283135399185395
pump_3           8/28/2015  10:50      1.1173552438370216
pump_3           8/28/2015  11:00      0.9273893922258013
pump_3           8/28/2015  11:10      1.0450925624934757
pump_3           8/28/2015  11:20      1.3029414785061773
pump_3           8/28/2015  11:30      1.3575988340126073
pump_3           8/28/2015  11:40      1.3052300102691323
pump_3           8/28/2015  11:50      1.2091026027355625
pump_3           8/28/2015  12:00      1.2757284962855957
pump_3           8/28/2015  12:10      1.225994976401335
pump_3           8/28/2015  12:20      1.1831614498145795
pump_3           8/28/2015  12:30      1.20461082297481
pump_3           8/28/2015  12:40      1.3893587142855153
pump_3           8/28/2015  12:50      1.342808489350638
pump_3           8/28/2015  13:00      1.2431477163107671
pump_3           8/28/2015  13:10      1.3295174651940718
pump_3           8/28/2015  13:20      1.315288069320492
pump_3           8/28/2015  13:30      1.4051415002120082
pump_3           8/28/2015  13:40      1.27648340343906
pump_3           8/28/2015  13:50      1.1297558396416856
pump_3           8/28/2015  14:00      1.270252884170307
pump_3           8/28/2015  14:10      1.1864494601109223
pump_3           8/28/2015  14:20      1.1017157742375625
pump_3           8/28/2015  14:30      0.9905400617905413
pump_3           8/28/2015  14:40      1.0481248884088425
pump_3           8/28/2015  14:50      0.9351234904058879
pump_3           8/28/2015  15:00      1.071247571427013
pump_3           8/28/2015  15:10      1.0562202736523365
pump_3           8/28/2015  15:20      1.0286956756005659
pump_3           8/28/2015  15:30      1.2531666629297233
pump_3           8/28/2015  15:40      1.015730083266686
;
pump_4           8/28/2015  08:10      1.9451646660093238
pump_4           8/28/2015  08:20      2.0448876854881557
pump_4           8/28/2015  08:30      1.6220353986848353
pump_4           8/28/2015  08:40      1.9804586290814492
pump_4           8/28/2015  08:50      1.7957088552216391
pump_4           8/28/2015  09:00      1.8955661165861317
pump_4           8/28/2015  09:10      2.121449859565529
pump_4           8/28/2015  09:20      1.9713604415035553
pump_4           8/28/2015  09:30      1.893002077151063
pump_4           8/28/2015  09:40      1.7189482577078334
pump_4           8/28/2015  09:50      1.9800762409119899
pump_4           8/28/2015  10:00      1.9673438734223452
pump_4           8/28/2015  10:10      1.9644978056708582
pump_4           8/28/2015  10:20      1.942668086723569
pump_4           8/28/2015  10:30      1.9629311537302097
pump_4           8/28/2015  10:40      1.8389135399185395
pump_4           8/28/2015  10:50      1.9279552438370215
pump_4           8/28/2015  11:00      1.7379893922258014