[TITLE]
;;Project Title/Notes

[OPTIONS]
;;Option             Value
FLOW_UNITS           CMS
INFILTRATION         HORTON
FLOW_ROUTING         DYNWAVE
LINK_OFFSETS         DEPTH
MIN_SLOPE            0
ALLOW_PONDING        YES
SKIP_STEADY_STATE    NO

START_DATE           08/28/2015
START_TIME           08:00
REPORT_START_DATE    08/28/2015
REPORT_START_TIME    08:00
END_DATE             08/28/2015
END_TIME             15:50
SWEEP_START          01/01
SWEEP_END            12/31
DRY_DAYS             0
REPORT_STEP          00:01:00
WET_STEP             00:01:00
DRY_STEP             00:01:00
ROUTING_STEP         0:00:05 
RULE_STEP            00:00:00

INERTIAL_DAMPING     PARTIAL
NORMAL_FLOW_LIMITED  BOTH
FORCE_MAIN_EQUATION  H-W
VARIABLE_STEP        0.75
LENGTHENING_STEP     0
MIN_SURFAREA         1.167
MAX_TRIALS           8
HEAD_TOLERANCE       0.0015
SYS_FLOW_TOL         5
LAT_FLOW_TOL         5
MINIMUM_STEP         0.5
THREADS              1

[EVAPORATION]
;;Data Source    Parameters
;;-------------- ----------------
CONSTANT         0.0
DRY_ONLY         NO

[RAINGAGES]
;;Name           Format    Interval SCF      Source    
;;-------------- --------- ------ ------ ----------
RG1              INTENSITY 0:01     1.0      TIMESERIES Oneyear-2h      
RG2              INTENSITY 0:01     1.0      TIMESERIES Oneyear-2h      
RG3              INTENSITY 0:01     1.0      TIMESERIES Oneyear-2h      
RG4              INTENSITY 0:01     1.0      TIMESERIES Oneyear-2h      

[SUBCATCHMENTS]
;;Name           Rain Gage        Outlet           Area     %Imperv  Width    %Slope   CurbLen  SnowPack        
;;-------------- ---------------- ---------------- -------- -------- -------- -------- -------- ----------------
SC01             RG4              J16              33       100      2400     0.8      0.0                      
SC02             RG3              J13              22.75    100      1500     0.8      0                        
SC03             RG1              J10              18       100      2000     0.5      0                        
SC04             RG3              J5               6.9      100      200      0.7      0                        
SC05             RG4              J1               15.6     100      1000     0.5      0                        
SC06             RG2              J8               32.55    100      985      0.5      0                        
SC07             RG3              CSO7             4.75     100      360      0.51     0                        
SC08             RG1              CSO8             28       100      1950     0.45     0                        
SC09             RG2              CSO9             6.9      100      650      0.4      0                        
SC010            RG4              CSO10            11.75    100      650      0.5      0                        

[SUBAREAS]
;;Subcatchment   N-Imperv   N-Perv     S-Imperv   S-Perv     PctZero    RouteTo    PctRouted 
;;-------------- ---------- ---------- ---------- ---------- ---------- ---------- ----------
SC01             0.009      0.10       0.05       0.05       0.0        OUTLET    
SC02             0.009      0.1        0.05       0.05       0          OUTLET    
SC03             0.007      0.1        0.05       0.05       0          OUTLET    
SC04             0.009      0.1        0.05       0.05       0          OUTLET    
SC05             0.007      0.1        0.05       0.05       0          OUTLET    
SC06             0.01       0.1        0.05       0.05       0          OUTLET    
SC07             0.02       0.1        0.05       0.05       0          OUTLET    
SC08             0.01       0.1        0.05       0.05       0          OUTLET    
SC09             0.016      0.1        0.05       0.05       0          OUTLET    
SC010            0.008      0.1        0.05       0.05       0          OUTLET    

[INFILTRATION]
;;Subcatchment   MaxRate    MinRate    Decay      DryTime    MaxInfil  
;;-------------- ---------- ---------- ---------- ---------- ----------
SC01             3.0        0.5        4          7          0         
SC02             3.0        0.5        4          7          0         
SC03             3.0        0.5        4          7          0         
SC04             3.0        0.5        4          7          0         
SC05             3.0        0.5        4          7          0         
SC06             3.0        0.5        4          7          0         
SC07             3.0        0.5        4          7          0         
SC08             3.0        0.5        4          7          0         
SC09             3.0        0.5        4          7          0         
SC010            3.0        0.5        4          7          0         

[JUNCTIONS]
;;Name           Elevation  MaxDepth   InitDepth  SurDepth   Aponded   
;;-------------- ---------- ---------- ---------- ---------- ----------
J1               34.000000  2          0.000000   05.000000  0.000000  
J3               18.000000  2          0.000000   0.000000   0.000000  
CSO7             34.00000   1.2        0.000000   0.000000   0.000     
J5               32.00000   2.000000   0.000000   0.000000   0.000000  
CSO9             40.000000  2          0.000000   0.000000   0.000000  
J8               36.000000  3.000000   0.000000   0.000000   0.000000  
CSO8             32.000000  2          0.000000   0.00000    0.00000   
J10              29.000000  2.000000   0.000000   0.000000   0.000000  
J13              29.000000  2.000000   0.000000   0.000000   0.000000  
J15              15.000000  3.000000   0.000000   0.000000   0.000000  
J16              30.000000  2.000000   0.000000   0.000000   0.000000  
CSO10            30.000000  1.00000    0.000000   0.000000   0.000000  
J12              26.000000  2.000000   0.000000   0.000000   0.000000  
J4               33         2.0        0.00000    0.00000    0.00000   
J6               25         2          0.0000     0.0000     0.0000    
J2               25         2          0.00000    0.00000    0.00000   
J19              8          2          0.0000     0.0000     0.0000    
J9               29         2          0.0000     0.0000     0.0000    
J14              20         2          0.0000     0.0000     0.0000    
J17              20         2          0.0000     0.0000     0.0000    
J7               39         2          0.00000    0.00000    0.00000   
J11              31         2          0.0000     0.0000     0.0000    
J18              29         2          0.0000     0.0000     0.0000    

[OUTFALLS]
;;Name           Elevation  Type       Stage Data       Gated    Route To        
;;-------------- ---------- ---------- ---------------- -------- ----------------
Out_to_WWTP      6          FREE                        NO                       

[STORAGE]
;;Name           Elev.    MaxDepth   InitDepth  Shape      Curve Name/Params            N/A      Fevap    Psi      Ksat     IMD     
;;-------------- -------- ---------- ----------- ---------- ---------------------------- -------- --------          -------- --------
T5               27.000000 5.000000   0.000000   TABULAR    Tank5                        0.000000 0.000000
T4               27.000000 5.000000   0.000000   TABULAR    Tank4                        0.000000 0.000000
T6               31.000000 5.000000   0.000000   TABULAR    Tank6                        0        0       
T3               22.000000 5.000000   0.000000   TABULAR    Tank3                        0.000000 0.000000
T2               21.000000 5.000000   0.000000   TABULAR    Tank2                        0.000000 0.000000
T1               10.000000 5.000000   0.000000   TABULAR    Tank1                        0.000000 0.000000

[CONDUITS]
;;Name           From Node        To Node          Length     Roughness  InOffset   OutOffset  InitFlow   MaxFlow   
;;-------------- ---------------- ---------------- ---------- ---------- ---------- ---------- ---------- ----------
C1               J2               J3               400        0.013      0.00000    0.00000    0.00000    0         
C6               J4               J5               400        0.01       0.00000    0.00000    0.00000    0         
C2               J6               J3               400        0.012      0.00000    0.00000    0.00000    0         
C9               J7               J8               500        0.013      0.00000    0.00000    0.00000    0         
C16              J11              J10              500        0.012      0.0000     0.0000     0.00000    0         
C3               J14              J3               200        0.012      0.000      0.000      0.00000    0         
C19              J17              J15              400        0.012      0.00000    0.00000    0.00000    0         
C11              J3               J15              200        0.012      0.0000     0.0000     0.00000    0         
C20              J16              J15              400        0.012      0.0000     0.0000     0.00000    0         
C22              J18              J15              500        0.013      0.0000     0.0000     0.00000    0         
C12              J9               J12              500        0.012      0.00000    0.00000    0.00000    0         
C17              J10              J12              200        0.012      0.0000     0.0000     0.00000    0         
C10              J8               T6               310.5      0.012      0.00000    0.00000    0.00000    0         
C13              J12              T3               375        0.012      0          0          0.00000    0         
C18              J13              T2               257        0.013      0.0000     0.0000     0.00000    0         
C23              J15              T1               305        0.013      0.0000     0.0000     0.00000    0         
C4               J1               T5               278        0.012      0.0000     0.0000     0.00000    0         
C7               J5               T4               204        0.012      0.00000    0.00000    0.00000    0         
C14              J19              Out_to_WWTP      200        0.011      0.0000     0.0000     0.0000     0         
C5               CSO7             J4               100        0.014      0.0000     0.0000     0.0000     0         
C8               CSO9             J7               100        0.0185     0.0000     0.0000     0.00000    0         
C15              CSO8             J11              100        0.012      0.0000     0.0000     0.0000     0         
C21              CSO10            J18              100        0.02       0.00000    0.00000    0.00000    0         

[ORIFICES]
;;Name           From Node        To Node          Type         Offset     Qcoeff     Gated    CloseTime 
;;-------------- ---------------- ---------------- ------------ ---------- ---------- -------- ----------
V4               T4               J6               SIDE         0.00000    1          NO       0         
V5               T5               J2               SIDE         0.0000     1          NO       0         
V1               T1               J19              SIDE         0.00000    1          NO       0         
V6               T6               J9               SIDE         0.0000     1          NO       0         
V3               T3               J14              SIDE         0.0000     1          NO       0         
V2               T2               J17              SIDE         0.0000     1          NO       0         

[XSECTIONS]
;;Link           Shape        Geom1            Geom2      Geom3      Geom4      Barrels    Culvert   
;;-------------- ------------ ---------------- ---------- ---------- ---------- ---------- ----------
C1               CIRCULAR     1                0          0          0          1                    
C6               CIRCULAR     0.3              0          0          0          1                    
C2               CIRCULAR     0.6              0          0          0          1                    
C9               CIRCULAR     0.5              0          0          0          1                    
C16              CIRCULAR     2                0          0          0          1                    
C3               CIRCULAR     1                0          0          0          1                    
C19              CIRCULAR     1                0          0          0          1                    
C11              CIRCULAR     2                0          0          0          1                    
C20              CIRCULAR     2                0          0          0          1                    
C22              CIRCULAR     0.8              0          0          0          1                    
C12              CIRCULAR     2                0          0          0          1                    
C17              CIRCULAR     2                0          0          0          1                    
C10              CIRCULAR     1.5              0          0          0          1                    
C13              CIRCULAR     2                0          0          0          1                    
C18              CIRCULAR     2                0          0          0          1                    
C23              CIRCULAR     1.5              0          0          0          1                    
C4               CIRCULAR     1                0          0          0          1                    
C7               CIRCULAR     1                0          0          0          1                    
C14              CIRCULAR     2                0          0          0          1                    
C5               CIRCULAR     0.2555           0          0          0          1                    
C8               CIRCULAR     0.318            0          0          0          1                    
C15              CIRCULAR     0.453            0          0          0          1                    
C21              CIRCULAR     0.44             0          0          0          1                    
V4               RECT_CLOSED  0.0264           0.3048     0          0
V5               RECT_CLOSED  0.013            0.3048     0          0
V1               RECT_CLOSED  0.09             0.3048     0          0
V6               RECT_CLOSED  0.0581           0.3048     0          0
V3               RECT_CLOSED  0.063            0.3048     0          0
V2               RECT_CLOSED  0.0465           0.3048     0          0

[LOSSES]
;;Link           Kentry     Kexit      Kavg       Flap Gate  Seepage   
;;-------------- ---------- ---------- ---------- ---------- ----------
C1               0.00000    0.00000    0.00000    NO         0.00000   
C6               0.00000    0.00000    0.00000    NO         0.00000   
C2               0.00000    0.00000    0.00000    NO         0.00000   
C9               0.00000    0.00000    0.00000    NO         0.00000   
C16              0.00000    0.00000    0.00000    NO         0         
C3               0.00000    0.00000    0.00000    NO         0         
C19              0.00000    0.00000    0.00000    NO         0.00000   
C11              0.00000    0.00000    0.00000    NO         0.00000   
C20              0.00000    0.00000    0.00000    NO         0.0000    
C22              0.00000    0.00000    0.00000    NO         0.0000    
C12              0.00000    0.00000    0.00000    NO         0.00000   
C17              0.00000    0.00000    0.00000    NO         0.0000    
C10              0.00000    0.00000    0.00000    NO         0.00000   
C13              0.00000    0.00000    0.00000    NO         0         
C18              0.00000    0.00000    0.00000    NO         0.0000    
C23              0.00000    0.00000    0.00000    NO         0.0000    
C4               0.00000    0.00000    0.00000    NO         0.00000   
C7               0.00000    0.00000    0.00000    NO         0.00000   
C14              0.0000     0.0000     0.0000     NO         0.0000    
C5               0.00000    0.00000    0.00000    NO         0.00000   
C8               0.00000    0.00000    0.00000    NO         0.00000   
C15              0.0000     0.0000     0.0000     NO         0.0000    
C21              0.00000    0.00000    0.00000    NO         0.00000   

[CONTROLS]
RULE R0
IF SIMULATION TIME > 0
THEN ORIFICE V1 SETTING = TIMESERIES pump_0

RULE R1
IF SIMULATION TIME > 0
THEN ORIFICE V2 SETTING = TIMESERIES pump_1

RULE R2
IF SIMULATION TIME > 0
THEN ORIFICE V3 SETTING = TIMESERIES pump_2

RULE R3
IF SIMULATION TIME > 0
THEN ORIFICE V4 SETTING = TIMESERIES pump_3

RULE R4
IF SIMULATION TIME > 0
THEN ORIFICE V5 SETTING = TIMESERIES pump_4

RULE R5
IF SIMULATION TIME > 0
THEN ORIFICE V6 SETTING = TIMESERIES pump_5



[DWF]
;;Node           Constituent      Baseline   Patterns  
;;-------------- ---------------- ---------- ----------
J1               FLOW             0.01269    "" "DWF"
CSO7             FLOW             0.00656    "" "DWF"
J5               FLOW             0.00288    "" "DWF"
CSO9             FLOW             0.00443    "" "DWF"
J8               FLOW             0.02126    "" "DWF"
CSO8             FLOW             0.00518    "DWFCommercial0"
J10              FLOW             0.00871    "" "DWF"
J13              FLOW             0.01056    "" "DWF"
J16              FLOW             0.01251    "" "DWF"
CSO10            FLOW             0.00314    "" "DWF"

[CURVES]
;;Name           Type       X-Value    Y-Value   
;;-------------- ---------- ---------- ----------
Tank1            Storage    0          140       
Tank1                       5          140       
;
Tank2            Storage    0          200       
Tank2                       5          200       
;
Tank3            Storage    0          520       
Tank3                       5          520       
;
Tank4            Storage    0          100       
Tank4                       5          100       
;
Tank5            Storage    0          100       
Tank5                       5          100       
;
Tank6            Storage    0          120       
Tank6                       5          120       

[TIMESERIES]
;;Name           Date       Time       Value     
;;-------------- ---------- ---------- ----------
pump_0           8/28/2015  08:10      1.0884147242965254
pump_0           8/28/2015  08:20      1.2860846543495827
pump_0           8/28/2015  08:30      1.4318907979198006
pump_0           8/28/2015  08:40      1.4212842639246752
pump_0           8/28/2015  08:50      1.4163031239929258
pump_0           8/28/2015  09:00      1.1887184473453023
pump_0           8/28/2015  09:10      1.1772584891451447
pump_0           8/28/2015  09:20      1.2855278438106352
pump_0           8/28/2015  09:30      1.2976447348079938
pump_0           8/28/2015  09:40      1.2543438110899086
pump_0           8/28/2015  09:50      1.3277663106538966
pump_0           8/28/2015  10:00      1.1851031840924635
pump_0           8/28/2015  10:10      1.372710006079428
pump_0           8/28/2015  10:20      1.375400483148573
pump_0           8/28/2015  10:30      1.2878646825967721
pump_0           8/28/2015  10:40      1.1115078523568587
pump_0           8/28/2015  10:50      1.5038836503099153
pump_0           8/28/2015  11:00      1.2254915030935933
pump_0           8/28/2015  11:10      1.201372030625707
pump_0           8/28/2015  11:20      1.2643865523291673
pump_0           8/28/2015  11:30      1.433245540003107
pump_0           8/28/2015  11:40      1.3604446341093892
pump_0           8/28/2015  11:50      1.14412414290768
pump_0           8/28/2015  12:00      1.2809918866056558
pump_0           8/28/2015  12:10      1.4703477099737037
pump_0           8/28/2015  12:20      1.262062291514873
pump_0           8/28/2015  12:30      1.364303896285472
pump_0           8/28/2015  12:40      1.3102499286493219
pump_0           8/28/2015  12:50      1.3984316924181324
pump_0           8/28/2015  13:00      1.2592010232878241
pump_0           8/28/2015  13:10      1.5273652176331232
pump_0           8/28/2015  13:20      1.25616585314151
pump_0           8/28/2015  13:30      1.2557806591075427
pump_0           8/28/2015  13:40      1.265929660120653
pump_0           8/28/2015  13:50      1.2260564677483896
pump_0           8/28/2015  14:00      1.5503744472407703
pump_0           8/28/2015  14:10      1.151846302077394
pump_0           8/28/2015  14:20      1.5476267249027713
pump_0           8/28/2015  14:30      1.2835028048069343
pump_0           8/28/2015  14:40      1.385887666087061
pump_0           8/28/2015  14:50      1.4207804168117104
pump_0           8/28/2015  15:00      1.2463398417033096
pump_0           8/28/2015  15:10      1.3279021040841044
pump_0           8/28/2015  15:20      1.3161763572688545
pump_0           8/28/2015  15:30      1.312147635761072
pump_0           8/28/2015  15:40      1.1614654866386322
;
pump_1           8/28/2015  08:10      0.32501472429652534
pump_1           8/28/2015  08:20      0.5226846543495827
pump_1           8/28/2015  08:30      0.5393907979198005
pump_1           8/28/2015  08:40      0.5287842639246753
pump_1           8/28/2015  08:50      0.5238031239929257
pump_1           8/28/2015  09:00      0.2962184473453023
pump_1           8/28/2015  09:10      0.2847584891451447
pump_1           8/28/2015  09:20      0.39302784381063527
pump_1           8/28/2015  09:30      0.4051447348079938
pump_1           8/28/2015  09:40      0.3618438110899085
pump_1           8/28/2015  09:50      0.4352663106538966
pump_1           8/28/2015  10:00      0.42170318409246355
pump_1           8/28/2015  10:10      0.6093100060794279
pump_1           8/28/2015  10:20      0.6120004831485731
pump_1           8/28/2015  10:30      0.524464682596772
pump_1           8/28/2015  10:40      0.34810785235685876
pump_1           8/28/2015  10:50      0.7404836503099155
pump_1           8/28/2015  11:00      0.46209150309359337
pump_1           8/28/2015  11:10      0.437972030625707
pump_1           8/28/2015  11:20      0.5009865523291674
pump_1           8/28/2015  11:30      0.669845540003107
pump_1           8/28/2015  11:40      0.5970446341093893
pump_1           8/28/2015  11:50      0.38072414290768003
pump_1           8/28/2015  12:00      0.5175918866056558
pump_1           8/28/2015  12:10      0.7069477099737038
pump_1           8/28/2015  12:20      0.49866229151487296
pump_1           8/28/2015  12:30      0.6009038962854722
pump_1           8/28/2015  12:40      0.5468499286493219
pump_1           8/28/2015  12:50      0.6350316924181324
pump_1           8/28/2015  13:00      0.49580102328782405
pump_1           8/28/2015  13:10      0.7639652176331233
pump_1           8/28/2015  13:20      0.4927658531415101
pump_1           8/28/2015  13:30      0.4923806591075426
pump_1           8/28/2015  13:40      0.5025296601206531
pump_1           8/28/2015  13:50      0.46265646774838975
pump_1           8/28/2015  14:00      0.7869744472407704
pump_1           8/28/2015  14:10      0.38844630207739395
pump_1           8/28/2015  14:20      0.7842267249027712
pump_1           8/28/2015  14:30      0.5201028048069344
pump_1           8/28/2015  14:40      0.6224876660870609
pump_1           8/28/2015  14:50      0.6573804168117104
pump_1           8/28/2015  15:00      0.4829398417033097
pump_1           8/28/2015  15:10      0.5645021040841044
pump_1           8/28/2015  15:20      0.5527763572688544
pump_1           8/28/2015  15:30      0.548747635761072
pump_1           8/28/2015  15:40      0.3980654866386323
;
pump_2           8/28/2015  08:10      0.7392147242965253
pump_2           8/28/2015  08:20      0.9368846543495827
pump_2           8/28/2015  08:30      1.0826907979198006
pump_2           8/28/2015  08:40      1.0720842639246753
pump_2           8/28/2015  08:50      1.0671031239929258
pump_2           8/28/2015  09:00      0.8395184473453023
pump_2           8/28/2015  09:10      0.8280584891451447
pump_2           8/28/2015  09:20      0.9363278438106353
pump_2           8/28/2015  09:30      0.9484447348079939
pump_2           8/28/2015  09:40      0.9051438110899086
pump_2           8/28/2015  09:50      0.9785663106538967
pump_2           8/28/2015  10:00      0.5010031840924636
pump_2           8/28/2015  10:10      0.6886100060794279
pump_2           8/28/2015  10:20      0.6913004831485732
pump_2           8/28/2015  10:30      0.6037646825967721
pump_2           8/28/2015  10:40      0.42740785235685874
pump_2           8/28/2015  10:50      0.8197836503099154
pump_2           8/28/2015  11:00      0.5413915030935934
pump_2           8/28/2015  11:10      0.517272030625707
pump_2           8/28/2015  11:20      0.5802865523291674
pump_2           8/28/2015  11:30      0.7491455400031071
pump_2           8/28/2015  11:40      0.6763446341093893
pump_2           8/28/2015  11:50      0.46002414290768
pump_2           8/28/2015  12:00      0.5968918866056558
pump_2           8/28/2015  12:10      0.7862477099737037
pump_2           8/28/2015  12:20      0.577962291514873
pump_2           8/28/2015  12:30      0.6802038962854722
pump_2           8/28/2015  12:40      0.626149928649322
pump_2           8/28/2015  12:50      0.7143316924181324
pump_2           8/28/2015  13:00      0.5751010232878241
pump_2           8/28/2015  13:10      0.8432652176331232
pump_2           8/28/2015  13:20      0.5720658531415101
pump_2           8/28/2015  13:30      0.5716806591075426
pump_2           8/28/2015  13:40      0.5818296601206532
pump_2           8/28/2015  13:50      0.5419564677483897
pump_2           8/28/2015  14:00      0.8662744472407704
pump_2           8/28/2015  14:10      0.467746302077394
pump_2           8/28/2015  14:20      0.8635267249027712
pump_2           8/28/2015  14:30      0.5994028048069344
pump_2           8/28/2015  14:40      0.7017876660870608
pump_2           8/28/2015  14:50      0.7366804168117105
pump_2           8/28/2015  15:00      0.5622398417033097
pump_2           8/28/2015  15:10      0.6438021040841044
pump_2           8/28/2015  15:20      0.6320763572688545
pump_2           8/28/2015  15:30      0.628047635761072
pump_2           8/28/2015  15:40      0.4773654866386323
;
pump_3           8/28/2015  08:10      0.2778147242965253
pump_3           8/28/2015  08:20      0.47548465434958265
pump_3           8/28/2015  08:30      0.6212907979198006
pump_3           8/28/2015  08:40      0.6106842639246752
pump_3           8/28/2015  08:50      0.6057031239929258
pump_3           8/28/2015  09:00      0.3781184473453023
pump_3           8/28/2015  09:10      0.36665848914514465
pump_3           8/28/2015  09:20      0.4749278438106353
pump_3           8/28/2015  09:30      0.4870447348079938
pump_3           8/28/2015  09:40      0.4437438110899085
pump_3           8/28/2015  09:50      0.5171663106538966
pump_3           8/28/2015  10:00      0.3745031840924636
pump_3           8/28/2015  10:10      0.7250100060794279
pump_3           8/28/2015  10:20      0.7277004831485732
pump_3           8/28/2015  10:30      0.6401646825967721
pump_3           8/28/2015  10:40      0.46380785235685873
pump_3           8/28/2015  10:50      0.8561836503099154
pump_3           8/28/2015  11:00      0.5777915030935934
pump_3           8/28/2015  11:10      0.553672030625707
pump_3           8/28/2015  11:20      0.6166865523291674
pump_3           8/28/2015  11:30      0.7855455400031071
pump_3           8/28/2015  11:40      0.7127446341093893
pump_3           8/28/2015  11:50      0.49642414290768
pump_3           8/28/2015  12:00      0.6332918866056558
pump_3           8/28/2015  12:10      0.8226477099737037
pump_3           8/28/2015  12:20      0.614362291514873
pump_3           8/28/2015  12:30      0.7166038962854722
pump_3           8/28/2015  12:40      0.6625499286493219
pump_3           8/28/2015  12:50      0.7507316924181324
pump_3           8/28/2015  13:00      0.6115010232878241
pump_3           8/28/2015  13:10      0.8796652176331232
pump_3           8/28/2015  13:20      0.6084658531415101
pump_3           8/28/2015  13:30      0.6080806591075426
pump_3           8/28/2015  13:40      0.6182296601206532
pump_3           8/28/2015  13:50      0.5783564677483897
pump_3           8/28/2015  14:00      0.9026744472407704
pump_3           8/28/2015  14:10      0.504146302077394
pump_3           8/28/2015  14:20      0.8999267249027711
pump_3           8/28/2015  14:30      0.6358028048069344
pump_3           8/28/2015  14:40      0.7381876660870608
pump_3           8/28/2015  14:50      0.7730804168117105
pump_3           8/28/2015  15:00      0.5986398417033096
pump_3           8/28/2015  15:10      0.6802021040841044
pump_3           8/28/2015  15:20      0.6684763572688545
pump_3           8/28/2015  15:30      0.664447635761072
pump_3           8/28/2015  15:40      0.5137654866386323
;
pump_4           8/28/2015  08:10      1.0884147242965254
pump_4           8/28/2015  08:20      1.2860846543495827
pump_4           8/28/2015  08:30      1.4318907979198006
pump_4           8/28/2015  08:40      1.4212842639246752
pump_4           8/28/2015  08:50      1.4163031239929258
pump_4           8/28/2015  09:00      1.1887184473453023
pump_4           8/28/2015  09:10      1.1772584891451447
pump_4           8/28/2015  09:20      1.2855278438106352
pump_4           8/28/2015  09:30      1.2976447348079938
pump_4           8/28/2015  09:40      1.2543438110899086
pump_4           8/28/2015  09:50      1.3277663106538966
pump_4           8/28/2015  10:00      1.1851031840924635
pump_4           8/28/2015  10:10      1.372710006079428
pump_4           8/28/2015  10:20      1.375400483148573
pump_4           8/28/2015  10:30      1.2878646825967721
pump_4           8/28/2015  10:40      1.1115078523568587
pump_4           8/28/2015  10:50      1.5038836503099153