[TITLE]
;;Project Title/Notes

[OPTIONS]
;;Option             Value
FLOW_UNITS           CMS
INFILTRATION         HORTON
FLOW_ROUTING         DYNWAVE
LINK_OFFSETS         DEPTH
MIN_SLOPE            0
ALLOW_PONDING        YES
SKIP_STEADY_STATE    NO

START_DATE           08/28/2015
START_TIME           08:00
REPORT_START_DATE    08/28/2015
REPORT_START_TIME    08:00
END_DATE             08/28/2015
END_TIME             15:50
SWEEP_START          01/01
SWEEP_END            12/31
DRY_DAYS             0
REPORT_STEP          00:01:00
WET_STEP             00:01:00
DRY_STEP             00:01:00
ROUTING_STEP         0:00:05 
RULE_STEP            00:00:00

INERTIAL_DAMPING     PARTIAL
NORMAL_FLOW_LIMITED  BOTH
FORCE_MAIN_EQUATION  H-W
VARIABLE_STEP        0.75
LENGTHENING_STEP     0
MIN_SURFAREA         1.167
MAX_TRIALS           8
HEAD_TOLERANCE       0.0015
SYS_FLOW_TOL         5
LAT_FLOW_TOL         5
MINIMUM_STEP         0.5
THREADS              1

[EVAPORATION]
;;Data Source    Parameters
;;-------------- ----------------
CONSTANT         0.0
DRY_ONLY         NO

[RAINGAGES]
;;Name           Format    Interval SCF      Source    
;;-------------- --------- ------ ------ ----------
RG1              INTENSITY 0:01     1.0      TIMESERIES Oneyear-2h      
RG2              INTENSITY 0:01     1.0      TIMESERIES Oneyear-2h      
RG3              INTENSITY 0:01     1.0      TIMESERIES Oneyear-2h      
RG4              INTENSITY 0:01     1.0      TIMESERIES Oneyear-2h      

[SUBCATCHMENTS]
;;Name           Rain Gage        Outlet           Area     %Imperv  Width    %Slope   CurbLen  SnowPack        
;;-------------- ---------------- ---------------- -------- -------- -------- -------- -------- ----------------
SC01             RG4              J16              33       100      2400     0.8      0.0                      
SC02             RG3              J13              22.75    100      1500     0.8      0                        
SC03             RG1              J10              18       100      2000     0.5      0                        
SC04             RG3              J5               6.9      100      200      0.7      0                        
SC05             RG4              J1               15.6     100      1000     0.5      0                        
SC06             RG2              J8               32.55    100      985      0.5      0                        
SC07             RG3              CSO7             4.75     100      360      0.51     0                        
SC08             RG1              CSO8             28       100      1950     0.45     0                        
SC09             RG2              CSO9             6.9      100      650      0.4      0                        
SC010            RG4              CSO10            11.75    100      650      0.5      0                        

[SUBAREAS]
;;Subcatchment   N-Imperv   N-Perv     S-Imperv   S-Perv     PctZero    RouteTo    PctRouted 
;;-------------- ---------- ---------- ---------- ---------- ---------- ---------- ----------
SC01             0.009      0.10       0.05       0.05       0.0        OUTLET    
SC02             0.009      0.1        0.05       0.05       0          OUTLET    
SC03             0.007      0.1        0.05       0.05       0          OUTLET    
SC04             0.009      0.1        0.05       0.05       0          OUTLET    
SC05             0.007      0.1        0.05       0.05       0          OUTLET    
SC06             0.01       0.1        0.05       0.05       0          OUTLET    
SC07             0.02       0.1        0.05       0.05       0          OUTLET    
SC08             0.01       0.1        0.05       0.05       0          OUTLET    
SC09             0.016      0.1        0.05       0.05       0          OUTLET    
SC010            0.008      0.1        0.05       0.05       0          OUTLET    

[INFILTRATION]
;;Subcatchment   MaxRate    MinRate    Decay      DryTime    MaxInfil  
;;-------------- ---------- ---------- ---------- ---------- ----------
SC01             3.0        0.5        4          7          0         
SC02             3.0        0.5        4          7          0         
SC03             3.0        0.5        4          7          0         
SC04             3.0        0.5        4          7          0         
SC05             3.0        0.5        4          7          0         
SC06             3.0        0.5        4          7          0         
SC07             3.0        0.5        4          7          0         
SC08             3.0        0.5        4          7          0         
SC09             3.0        0.5        4          7          0         
SC010            3.0        0.5        4          7          0         

[JUNCTIONS]
;;Name           Elevation  MaxDepth   InitDepth  SurDepth   Aponded   
;;-------------- ---------- ---------- ---------- ---------- ----------
J1               34.000000  2          0.000000   05.000000  0.000000  
J3               18.000000  2          0.000000   0.000000   0.000000  
CSO7             34.00000   1.2        0.000000   0.000000   0.000     
J5               32.00000   2.000000   0.000000   0.000000   0.000000  
CSO9             40.000000  2          0.000000   0.000000   0.000000  
J8               36.000000  3.000000   0.000000   0.000000   0.000000  
CSO8             32.000000  2          0.000000   0.00000    0.00000   
J10              29.000000  2.000000   0.000000   0.000000   0.000000  
J13              29.000000  2.000000   0.000000   0.000000   0.000000  
J15              15.000000  3.000000   0.000000   0.000000   0.000000  
J16              30.000000  2.000000   0.000000   0.000000   0.000000  
CSO10            30.000000  1.00000    0.000000   0.000000   0.000000  
J12              26.000000  2.000000   0.000000   0.000000   0.000000  
J4               33         2.0        0.00000    0.00000    0.00000   
J6               25         2          0.0000     0.0000     0.0000    
J2               25         2          0.00000    0.00000    0.00000   
J19              8          2          0.0000     0.0000     0.0000    
J9               29         2          0.0000     0.0000     0.0000    
J14              20         2          0.0000     0.0000     0.0000    
J17              20         2          0.0000     0.0000     0.0000    
J7               39         2          0.00000    0.00000    0.00000   
J11              31         2          0.0000     0.0000     0.0000    
J18              29         2          0.0000     0.0000     0.0000    

[OUTFALLS]
;;Name           Elevation  Type       Stage Data       Gated    Route To        
;;-------------- ---------- ---------- ---------------- -------- ----------------
Out_to_WWTP      6          FREE                        NO                       

[STORAGE]
;;Name           Elev.    MaxDepth   InitDepth  Shape      Curve Name/Params            N/A      Fevap    Psi      Ksat     IMD     
;;-------------- -------- ---------- ----------- ---------- ---------------------------- -------- --------          -------- --------
T5               27.000000 5.000000   0.000000   TABULAR    Tank5                        0.000000 0.000000
T4               27.000000 5.000000   0.000000   TABULAR    Tank4                        0.000000 0.000000
T6               31.000000 5.000000   0.000000   TABULAR    Tank6                        0        0       
T3               22.000000 5.000000   0.000000   TABULAR    Tank3                        0.000000 0.000000
T2               21.000000 5.000000   0.000000   TABULAR    Tank2                        0.000000 0.000000
T1               10.000000 5.000000   0.000000   TABULAR    Tank1                        0.000000 0.000000

[CONDUITS]
;;Name           From Node        To Node          Length     Roughness  InOffset   OutOffset  InitFlow   MaxFlow   
;;-------------- ---------------- ---------------- ---------- ---------- ---------- ---------- ---------- ----------
C1               J2               J3               400        0.013      0.00000    0.00000    0.00000    0         
C6               J4               J5               400        0.01       0.00000    0.00000    0.00000    0         
C2               J6               J3               400        0.012      0.00000    0.00000    0.00000    0         
C9               J7               J8               500        0.013      0.00000    0.00000    0.00000    0         
C16              J11              J10              500        0.012      0.0000     0.0000     0.00000    0         
C3               J14              J3               200        0.012      0.000      0.000      0.00000    0         
C19              J17              J15              400        0.012      0.00000    0.00000    0.00000    0         
C11              J3               J15              200        0.012      0.0000     0.0000     0.00000    0         
C20              J16              J15              400        0.012      0.0000     0.0000     0.00000    0         
C22              J18              J15              500        0.013      0.0000     0.0000     0.00000    0         
C12              J9               J12              500        0.012      0.00000    0.00000    0.00000    0         
C17              J10              J12              200        0.012      0.0000     0.0000     0.00000    0         
C10              J8               T6               310.5      0.012      0.00000    0.00000    0.00000    0         
C13              J12              T3               375        0.012      0          0          0.00000    0         
C18              J13              T2               257        0.013      0.0000     0.0000     0.00000    0         
C23              J15              T1               305        0.013      0.0000     0.0000     0.00000    0         
C4               J1               T5               278        0.012      0.0000     0.0000     0.00000    0         
C7               J5               T4               204        0.012      0.00000    0.00000    0.00000    0         
C14              J19              Out_to_WWTP      200        0.011      0.0000     0.0000     0.0000     0         
C5               CSO7             J4               100        0.014      0.0000     0.0000     0.0000     0         
C8               CSO9             J7               100        0.0185     0.0000     0.0000     0.00000    0         
C15              CSO8             J11              100        0.012      0.0000     0.0000     0.0000     0         
C21              CSO10            J18              100        0.02       0.00000    0.00000    0.00000    0         

[ORIFICES]
;;Name           From Node        To Node          Type         Offset     Qcoeff     Gated    CloseTime 
;;-------------- ---------------- ---------------- ------------ ---------- ---------- -------- ----------
V4               T4               J6               SIDE         0.00000    1          NO       0         
V5               T5               J2               SIDE         0.0000     1          NO       0         
V1               T1               J19              SIDE         0.00000    1          NO       0         
V6               T6               J9               SIDE         0.0000     1          NO       0         
V3               T3               J14              SIDE         0.0000     1          NO       0         
V2               T2               J17              SIDE         0.0000     1          NO       0         

[XSECTIONS]
;;Link           Shape        Geom1            Geom2      Geom3      Geom4      Barrels    Culvert   
;;-------------- ------------ ---------------- ---------- ---------- ---------- ---------- ----------
C1               CIRCULAR     1                0          0          0          1                    
C6               CIRCULAR     0.3              0          0          0          1                    
C2               CIRCULAR     0.6              0          0          0          1                    
C9               CIRCULAR     0.5              0          0          0          1                    
C16              CIRCULAR     2                0          0          0          1                    
C3               CIRCULAR     1                0          0          0          1                    
C19              CIRCULAR     1                0          0          0          1                    
C11              CIRCULAR     2                0          0          0          1                    
C20              CIRCULAR     2                0          0          0          1                    
C22              CIRCULAR     0.8              0          0          0          1                    
C12              CIRCULAR     2                0          0          0          1                    
C17              CIRCULAR     2                0          0          0          1                    
C10              CIRCULAR     1.5              0          0          0          1                    
C13              CIRCULAR     2                0          0          0          1                    
C18              CIRCULAR     2                0          0          0          1                    
C23              CIRCULAR     1.5              0          0          0          1                    
C4               CIRCULAR     1                0          0          0          1                    
C7               CIRCULAR     1                0          0          0          1                    
C14              CIRCULAR     2                0          0          0          1                    
C5               CIRCULAR     0.2555           0          0          0          1                    
C8               CIRCULAR     0.318            0          0          0          1                    
C15              CIRCULAR     0.453            0          0          0          1                    
C21              CIRCULAR     0.44             0          0          0          1                    
V4               RECT_CLOSED  0.0264           0.3048     0          0
V5               RECT_CLOSED  0.013            0.3048     0          0
V1               RECT_CLOSED  0.09             0.3048     0          0
V6               RECT_CLOSED  0.0581           0.3048     0          0
V3               RECT_CLOSED  0.063            0.3048     0          0
V2               RECT_CLOSED  0.0465           0.3048     0          0

[LOSSES]
;;Link           Kentry     Kexit      Kavg       Flap Gate  Seepage   
;;-------------- ---------- ---------- ---------- ---------- ----------
C1               0.00000    0.00000    0.00000    NO         0.00000   
C6               0.00000    0.00000    0.00000    NO         0.00000   
C2               0.00000    0.00000    0.00000    NO         0.00000   
C9               0.00000    0.00000    0.00000    NO         0.00000   
C16              0.00000    0.00000    0.00000    NO         0         
C3               0.00000    0.00000    0.00000    NO         0         
C19              0.00000    0.00000    0.00000    NO         0.00000   
C11              0.00000    0.00000    0.00000    NO         0.00000   
C20              0.00000    0.00000    0.00000    NO         0.0000    
C22              0.00000    0.00000    0.00000    NO         0.0000    
C12              0.00000    0.00000    0.00000    NO         0.00000   
C17              0.00000    0.00000    0.00000    NO         0.0000    
C10              0.00000    0.00000    0.00000    NO         0.00000   
C13              0.00000    0.00000    0.00000    NO         0         
C18              0.00000    0.00000    0.00000    NO         0.0000    
C23              0.00000    0.00000    0.00000    NO         0.0000    
C4               0.00000    0.00000    0.00000    NO         0.00000   
C7               0.00000    0.00000    0.00000    NO         0.00000   
C14              0.0000     0.0000     0.0000     NO         0.0000    
C5               0.00000    0.00000    0.00000    NO         0.00000   
C8               0.00000    0.00000    0.00000    NO         0.00000   
C15              0.0000     0.0000     0.0000     NO         0.0000    
C21              0.00000    0.00000    0.00000    NO         0.00000   

[CONTROLS]
RULE R0
IF SIMULATION TIME > 0
THEN ORIFICE V1 SETTING = TIMESERIES pump_0

RULE R1
IF SIMULATION TIME > 0
THEN ORIFICE V2 SETTING = TIMESERIES pump_1

RULE R2
IF SIMULATION TIME > 0
THEN ORIFICE V3 SETTING = TIMESERIES pump_2

RULE R3
IF SIMULATION TIME > 0
THEN ORIFICE V4 SETTING = TIMESERIES pump_3

RULE R4
IF SIMULATION TIME > 0
THEN ORIFICE V5 SETTING = TIMESERIES pump_4

RULE R5
IF SIMULATION TIME > 0
THEN ORIFICE V6 SETTING = TIMESERIES pump_5



[DWF]
;;Node           Constituent      Baseline   Patterns  
;;-------------- ---------------- ---------- ----------
J1               FLOW             0.01269    "" "DWF"
CSO7             FLOW             0.00656    "" "DWF"
J5               FLOW             0.00288    "" "DWF"
CSO9             FLOW             0.00443    "" "DWF"
J8               FLOW             0.02126    "" "DWF"
CSO8             FLOW             0.00518    "DWFCommercial0"
J10              FLOW             0.00871    "" "DWF"
J13              FLOW             0.01056    "" "DWF"
J16              FLOW             0.01251    "" "DWF"
CSO10            FLOW             0.00314    "" "DWF"

[CURVES]
;;Name           Type       X-Value    Y-Value   
;;-------------- ---------- ---------- ----------
Tank1            Storage    0          140       
Tank1                       5          140       
;
Tank2            Storage    0          200       
Tank2                       5          200       
;
Tank3            Storage    0          520       
Tank3                       5          520       
;
Tank4            Storage    0          100       
Tank4                       5          100       
;
Tank5            Storage    0          100       
Tank5                       5          100       
;
Tank6            Storage    0          120       
Tank6                       5          120       

[TIMESERIES]
;;Name           Date       Time       Value     
;;-------------- ---------- ---------- ----------
pump_0           8/28/2015  08:10      1
pump_0           8/28/2015  08:20      1
pump_0           8/28/2015  08:30      1
pump_0           8/28/2015  08:40      1
pump_0           8/28/2015  08:50      1
pump_0           8/28/2015  09:00      1
pump_0           8/28/2015  09:10      1
pump_0           8/28/2015  09:20      1
pump_0           8/28/2015  09:30      1
pump_0           8/28/2015  09:40      1
pump_0           8/28/2015  09:50      1
pump_0           8/28/2015  10:00      1
pump_0           8/28/2015  10:10      1
pump_0           8/28/2015  10:20      1
pump_0           8/28/2015  10:30      1
pump_0           8/28/2015  10:40      1
pump_0           8/28/2015  10:50      1
pump_0           8/28/2015  11:00      1
pump_0           8/28/2015  11:10      1
pump_0           8/28/2015  11:20      1
pump_0           8/28/2015  11:30      1
pump_0           8/28/2015  11:40      1
pump_0           8/28/2015  11:50      1
pump_0           8/28/2015  12:00      1
pump_0           8/28/2015  12:10      1
pump_0           8/28/2015  12:20      1
pump_0           8/28/2015  12:30      1
pump_0           8/28/2015  12:40      1
pump_0           8/28/2015  12:50      1
pump_0           8/28/2015  13:00      1
pump_0           8/28/2015  13:10      1
pump_0           8/28/2015  13:20      1
pump_0           8/28/2015  13:30      1
pump_0           8/28/2015  13:40      1
pump_0           8/28/2015  13:50      1
pump_0           8/28/2015  14:00      1
pump_0           8/28/2015  14:10      1
pump_0           8/28/2015  14:20      1
pump_0           8/28/2015  14:30      1
pump_0           8/28/2015  14:40      1
pump_0           8/28/2015  14:50      1
pump_0           8/28/2015  15:00      1
pump_0           8/28/2015  15:10      1
pump_0           8/28/2015  15:20      1
pump_0           8/28/2015  15:30      1
pump_0           8/28/2015  15:40      1
;
pump_1           8/28/2015  08:10      0.15274744726635378
pump_1           8/28/2015  08:20      0.15443365619297397
pump_1           8/28/2015  08:30      0.1572408390134184
pump_1           8/28/2015  08:40      0.1379580818427455
pump_1           8/28/2015  08:50      0.15936223745518213
pump_1           8/28/2015  09:00      0.15746170056933523
pump_1           8/28/2015  09:10      0.15704793530289682
pump_1           8/28/2015  09:20      0.16092846310595282
pump_1           8/28/2015  09:30      0.13585072430593798
pump_1           8/28/2015  09:40      0.17661829512041216
pump_1           8/28/2015  09:50      0.28356648885222935
pump_1           8/28/2015  10:00      0.27225786283010894
pump_1           8/28/2015  10:10      0.28771529878539814
pump_1           8/28/2015  10:20      0.27388832276910596
pump_1           8/28/2015  10:30      0.28726392699845693
pump_1           8/28/2015  10:40      0.2920060223209104
pump_1           8/28/2015  10:50      0.27341103172566783
pump_1           8/28/2015  11:00      0.2950542642912388
pump_1           8/28/2015  11:10      0.2879109219967497
pump_1           8/28/2015  11:20      0.29009083684214654
pump_1           8/28/2015  11:30      0.2906406810514772
pump_1           8/28/2015  11:40      0.2917243414680568
pump_1           8/28/2015  11:50      0.29780361799575134
pump_1           8/28/2015  12:00      0.29520454447778594
pump_1           8/28/2015  12:10      0.2914691035347378
pump_1           8/28/2015  12:20      0.278956603737304
pump_1           8/28/2015  12:30      0.2894633110246921
pump_1           8/28/2015  12:40      0.28102166045594146
pump_1           8/28/2015  12:50      0.2721124772632843
pump_1           8/28/2015  13:00      0.2861862312478897
pump_1           8/28/2015  13:10      0.2774718990324924
pump_1           8/28/2015  13:20      0.2979514138578654
pump_1           8/28/2015  13:30      0.2862229080579957
pump_1           8/28/2015  13:40      0.28705262568720713
pump_1           8/28/2015  13:50      0.2943520611859306
pump_1           8/28/2015  14:00      0.28241876078083206
pump_1           8/28/2015  14:10      0.2840340514158957
pump_1           8/28/2015  14:20      0.2982467116229894
pump_1           8/28/2015  14:30      0.2727632139843208
pump_1           8/28/2015  14:40      0.27793044781567855
pump_1           8/28/2015  14:50      0.2852630612776066
pump_1           8/28/2015  15:00      0.29444789191060317
pump_1           8/28/2015  15:10      0.289097924739489
pump_1           8/28/2015  15:20      0.2750248316227544
pump_1           8/28/2015  15:30      0.27740226029475523
pump_1           8/28/2015  15:40      0.30354460019797935
;
pump_2           8/28/2015  08:10      0.6960474472663538
pump_2           8/28/2015  08:20      0.697733656192974
pump_2           8/28/2015  08:30      0.7005408390134185
pump_2           8/28/2015  08:40      0.6812580818427455
pump_2           8/28/2015  08:50      0.7026622374551822
pump_2           8/28/2015  09:00      0.7007617005693353
pump_2           8/28/2015  09:10      0.7003479353028969
pump_2           8/28/2015  09:20      0.7042284631059529
pump_2           8/28/2015  09:30      0.679150724305938
pump_2           8/28/2015  09:40      0.7199182951204122
pump_2           8/28/2015  09:50      0.36286648885222933
pump_2           8/28/2015  10:00      0.686457862830109
pump_2           8/28/2015  10:10      0.3670152987853982
pump_2           8/28/2015  10:20      0.353188322769106
pump_2           8/28/2015  10:30      0.3665639269984569
pump_2           8/28/2015  10:40      0.3713060223209104
pump_2           8/28/2015  10:50      0.3527110317256678
pump_2           8/28/2015  11:00      0.3743542642912388
pump_2           8/28/2015  11:10      0.36721092199674976
pump_2           8/28/2015  11:20      0.3693908368421466
pump_2           8/28/2015  11:30      0.3699406810514772
pump_2           8/28/2015  11:40      0.3710243414680568
pump_2           8/28/2015  11:50      0.3771036179957514
pump_2           8/28/2015  12:00      0.37450454447778597
pump_2           8/28/2015  12:10      0.37076910353473785
pump_2           8/28/2015  12:20      0.35825660373730406
pump_2           8/28/2015  12:30      0.36876331102469206
pump_2           8/28/2015  12:40      0.3603216604559415
pump_2           8/28/2015  12:50      0.3514124772632843
pump_2           8/28/2015  13:00      0.36548623124788976
pump_2           8/28/2015  13:10      0.3567718990324924
pump_2           8/28/2015  13:20      0.3772514138578654
pump_2           8/28/2015  13:30      0.36552290805799575
pump_2           8/28/2015  13:40      0.3663526256872071
pump_2           8/28/2015  13:50      0.37365206118593064
pump_2           8/28/2015  14:00      0.36171876078083204
pump_2           8/28/2015  14:10      0.3633340514158957
pump_2           8/28/2015  14:20      0.37754671162298936
pump_2           8/28/2015  14:30      0.35206321398432083
pump_2           8/28/2015  14:40      0.35723044781567853
pump_2           8/28/2015  14:50      0.36456306127760657
pump_2           8/28/2015  15:00      0.3737478919106032
pump_2           8/28/2015  15:10      0.368397924739489
pump_2           8/28/2015  15:20      0.3543248316227544
pump_2           8/28/2015  15:30      0.35670226029475527
pump_2           8/28/2015  15:40      0.3828446001979794
;
pump_3           8/28/2015  08:10      0.23464744726635378
pump_3           8/28/2015  08:20      0.23633365619297397
pump_3           8/28/2015  08:30      0.23914083901341843
pump_3           8/28/2015  08:40      0.21985808184274552
pump_3           8/28/2015  08:50      0.24126223745518216
pump_3           8/28/2015  09:00      0.23936170056933526
pump_3           8/28/2015  09:10      0.23894793530289682
pump_3           8/28/2015  09:20      0.24282846310595285
pump_3           8/28/2015  09:30      0.217750724305938
pump_3           8/28/2015  09:40      0.2585182951204122
pump_3           8/28/2015  09:50      0.23636648885222933
pump_3           8/28/2015  10:00      0.22505786283010892
pump_3           8/28/2015  10:10      0.40341529878539817
pump_3           8/28/2015  10:20      0.389588322769106
pump_3           8/28/2015  10:30      0.4029639269984569
pump_3           8/28/2015  10:40      0.4077060223209104
pump_3           8/28/2015  10:50      0.3891110317256678
pump_3           8/28/2015  11:00      0.4107542642912388
pump_3           8/28/2015  11:10      0.40361092199674975
pump_3           8/28/2015  11:20      0.40579083684214656
pump_3           8/28/2015  11:30      0.4063406810514772
pump_3           8/28/2015  11:40      0.4074243414680568
pump_3           8/28/2015  11:50      0.41350361799575136
pump_3           8/28/2015  12:00      0.41090454447778596
pump_3           8/28/2015  12:10      0.40716910353473784
pump_3           8/28/2015  12:20      0.39465660373730405
pump_3           8/28/2015  12:30      0.40516331102469205
pump_3           8/28/2015  12:40      0.3967216604559415
pump_3           8/28/2015  12:50      0.38781247726328427
pump_3           8/28/2015  13:00      0.40188623124788975
pump_3           8/28/2015  13:10      0.3931718990324924
pump_3           8/28/2015  13:20      0.4136514138578654
pump_3           8/28/2015  13:30      0.40192290805799574
pump_3           8/28/2015  13:40      0.4027526256872071
pump_3           8/28/2015  13:50      0.4100520611859306
pump_3           8/28/2015  14:00      0.398118760780832
pump_3           8/28/2015  14:10      0.3997340514158957
pump_3           8/28/2015  14:20      0.41394671162298935
pump_3           8/28/2015  14:30      0.3884632139843208
pump_3           8/28/2015  14:40      0.3936304478156785
pump_3           8/28/2015  14:50      0.40096306127760656
pump_3           8/28/2015  15:00      0.4101478919106032
pump_3           8/28/2015  15:10      0.404797924739489
pump_3           8/28/2015  15:20      0.3907248316227544
pump_3           8/28/2015  15:30      0.39310226029475526
pump_3           8/28/2015  15:40      0.4192446001979794
;
pump_4           8/28/2015  08:10      1
pump_4           8/28/2015  08:20      1
pump_4           8/28/2015  08:30      1
pump_4           8/28/2015  08:40      1
pump_4           8/28/2015  08:50      1
pump_4           8/28/2015  09:00      1
pump_4           8/28/2015  09:10      1
pump_4           8/28/2015  09:20      1
pump_4           8/28/2015  09:30      1
pump_4           8/28/2015  09:40      1
pump_4           8/28/2015  09:50      1
pump_4           8/28/2015  10:00      1
pump_4           8/28/2015  10:10      1
pump_4           8/28/2015  10:20      1
pump_4           8/28/2015  10:30      1
pump_4           8/28/2015  10:40      1
pump_4           8/28/2015  10:50      1
pump_4           8/28/2015  11:00      1
pump_4           8/28/2015  11:10      1
pump_4           8/28/2015  11:20      1
pump_4           8/28/2015  11:30      1
pump_4           8/28/2015  11:40      1
pump_4           8/28/2015  11:50      1
pump_4           8/28/2015  12:00      1
pump_4           8/28/2015  12:10      1
pump_4           8/28/2015  12:20      1
pump_4           8/28/2015  12:30      1
pump_4           8/28/2015  12:40      1
pump_4           8/28/2015  12:50      1
pump_4           8/28/2015  13:00      1
pump_4           8/28/2015  13:10      1
pump_4           8/28/2015  13:20      1
pump_4           8/28/2015  13:30      1
pump_4           8/28/2015  13:40      1
pump_4           8/28/2015  13:50      1
pump_4           8/28/2015  14:00      1
pump_4           8/28/2015  14:10      1
pump_4           8/28/2015  14:20      1
pump_4           8/28/2015  14:30      1
pump_4           8/28/2015  14:40      1
pump_4           8/28/2015  14:50      1
pump_4           8/28/2015  15:00      1