[TITLE]
;;Project Title/Notes

[OPTIONS]
;;Option             Value
FLOW_UNITS           CMS
INFILTRATION         HORTON
FLOW_ROUTING         DYNWAVE
LINK_OFFSETS         DEPTH
MIN_SLOPE            0
ALLOW_PONDING        YES
SKIP_STEADY_STATE    NO

START_DATE           08/28/2015
START_TIME           08:00
REPORT_START_DATE    08/28/2015
REPORT_START_TIME    08:00
END_DATE             08/28/2015
END_TIME             15:50
SWEEP_START          01/01
SWEEP_END            12/31
DRY_DAYS             0
REPORT_STEP          00:01:00
WET_STEP             00:01:00
DRY_STEP             00:01:00
ROUTING_STEP         0:00:05 
RULE_STEP            00:00:00

INERTIAL_DAMPING     PARTIAL
NORMAL_FLOW_LIMITED  BOTH
FORCE_MAIN_EQUATION  H-W
VARIABLE_STEP        0.75
LENGTHENING_STEP     0
MIN_SURFAREA         1.167
MAX_TRIALS           8
HEAD_TOLERANCE       0.0015
SYS_FLOW_TOL         5
LAT_FLOW_TOL         5
MINIMUM_STEP         0.5
THREADS              1

[EVAPORATION]
;;Data Source    Parameters
;;-------------- ----------------
CONSTANT         0.0
DRY_ONLY         NO

[RAINGAGES]
;;Name           Format    Interval SCF      Source    
;;-------------- --------- ------ ------ ----------
RG1              INTENSITY 0:01     1.0      TIMESERIES Oneyear-2h      
RG2              INTENSITY 0:01     1.0      TIMESERIES Oneyear-2h      
RG3              INTENSITY 0:01     1.0      TIMESERIES Oneyear-2h      
RG4              INTENSITY 0:01     1.0      TIMESERIES Oneyear-2h      

[SUBCATCHMENTS]
;;Name           Rain Gage        Outlet           Area     %Imperv  Width    %Slope   CurbLen  SnowPack        
;;-------------- ---------------- ---------------- -------- -------- -------- -------- -------- ----------------
SC01             RG4              J16              33       100      2400     0.8      0.0                      
SC02             RG3              J13              22.75    100      1500     0.8      0                        
SC03             RG1              J10              18       100      2000     0.5      0                        
SC04             RG3              J5               6.9      100      200      0.7      0                        
SC05             RG4              J1               15.6     100      1000     0.5      0                        
SC06             RG2              J8               32.55    100      985      0.5      0                        
SC07             RG3              CSO7             4.75     100      360      0.51     0                        
SC08             RG1              CSO8             28       100      1950     0.45     0                        
SC09             RG2              CSO9             6.9      100      650      0.4      0                        
SC010            RG4              CSO10            11.75    100      650      0.5      0                        

[SUBAREAS]
;;Subcatchment   N-Imperv   N-Perv     S-Imperv   S-Perv     PctZero    RouteTo    PctRouted 
;;-------------- ---------- ---------- ---------- ---------- ---------- ---------- ----------
SC01             0.009      0.10       0.05       0.05       0.0        OUTLET    
SC02             0.009      0.1        0.05       0.05       0          OUTLET    
SC03             0.007      0.1        0.05       0.05       0          OUTLET    
SC04             0.009      0.1        0.05       0.05       0          OUTLET    
SC05             0.007      0.1        0.05       0.05       0          OUTLET    
SC06             0.01       0.1        0.05       0.05       0          OUTLET    
SC07             0.02       0.1        0.05       0.05       0          OUTLET    
SC08             0.01       0.1        0.05       0.05       0          OUTLET    
SC09             0.016      0.1        0.05       0.05       0          OUTLET    
SC010            0.008      0.1        0.05       0.05       0          OUTLET    

[INFILTRATION]
;;Subcatchment   MaxRate    MinRate    Decay      DryTime    MaxInfil  
;;-------------- ---------- ---------- ---------- ---------- ----------
SC01             3.0        0.5        4          7          0         
SC02             3.0        0.5        4          7          0         
SC03             3.0        0.5        4          7          0         
SC04             3.0        0.5        4          7          0         
SC05             3.0        0.5        4          7          0         
SC06             3.0        0.5        4          7          0         
SC07             3.0        0.5        4          7          0         
SC08             3.0        0.5        4          7          0         
SC09             3.0        0.5        4          7          0         
SC010            3.0        0.5        4          7          0         

[JUNCTIONS]
;;Name           Elevation  MaxDepth   InitDepth  SurDepth   Aponded   
;;-------------- ---------- ---------- ---------- ---------- ----------
J1               34.000000  2          0.000000   05.000000  0.000000  
J3               18.000000  2          0.000000   0.000000   0.000000  
CSO7             34.00000   1.2        0.000000   0.000000   0.000     
J5               32.00000   2.000000   0.000000   0.000000   0.000000  
CSO9             40.000000  2          0.000000   0.000000   0.000000  
J8               36.000000  3.000000   0.000000   0.000000   0.000000  
CSO8             32.000000  2          0.000000   0.00000    0.00000   
J10              29.000000  2.000000   0.000000   0.000000   0.000000  
J13              29.000000  2.000000   0.000000   0.000000   0.000000  
J15              15.000000  3.000000   0.000000   0.000000   0.000000  
J16              30.000000  2.000000   0.000000   0.000000   0.000000  
CSO10            30.000000  1.00000    0.000000   0.000000   0.000000  
J12              26.000000  2.000000   0.000000   0.000000   0.000000  
J4               33         2.0        0.00000    0.00000    0.00000   
J6               25         2          0.0000     0.0000     0.0000    
J2               25         2          0.00000    0.00000    0.00000   
J19              8          2          0.0000     0.0000     0.0000    
J9               29         2          0.0000     0.0000     0.0000    
J14              20         2          0.0000     0.0000     0.0000    
J17              20         2          0.0000     0.0000     0.0000    
J7               39         2          0.00000    0.00000    0.00000   
J11              31         2          0.0000     0.0000     0.0000    
J18              29         2          0.0000     0.0000     0.0000    

[OUTFALLS]
;;Name           Elevation  Type       Stage Data       Gated    Route To        
;;-------------- ---------- ---------- ---------------- -------- ----------------
Out_to_WWTP      6          FREE                        NO                       

[STORAGE]
;;Name           Elev.    MaxDepth   InitDepth  Shape      Curve Name/Params            N/A      Fevap    Psi      Ksat     IMD     
;;-------------- -------- ---------- ----------- ---------- ---------------------------- -------- --------          -------- --------
T5               27.000000 5.000000   0.000000   TABULAR    Tank5                        0.000000 0.000000
T4               27.000000 5.000000   0.000000   TABULAR    Tank4                        0.000000 0.000000
T6               31.000000 5.000000   0.000000   TABULAR    Tank6                        0        0       
T3               22.000000 5.000000   0.000000   TABULAR    Tank3                        0.000000 0.000000
T2               21.000000 5.000000   0.000000   TABULAR    Tank2                        0.000000 0.000000
T1               10.000000 5.000000   0.000000   TABULAR    Tank1                        0.000000 0.000000

[CONDUITS]
;;Name           From Node        To Node          Length     Roughness  InOffset   OutOffset  InitFlow   MaxFlow   
;;-------------- ---------------- ---------------- ---------- ---------- ---------- ---------- ---------- ----------
C1               J2               J3               400        0.013      0.00000    0.00000    0.00000    0         
C6               J4               J5               400        0.01       0.00000    0.00000    0.00000    0         
C2               J6               J3               400        0.012      0.00000    0.00000    0.00000    0         
C9               J7               J8               500        0.013      0.00000    0.00000    0.00000    0         
C16              J11              J10              500        0.012      0.0000     0.0000     0.00000    0         
C3               J14              J3               200        0.012      0.000      0.000      0.00000    0         
C19              J17              J15              400        0.012      0.00000    0.00000    0.00000    0         
C11              J3               J15              200        0.012      0.0000     0.0000     0.00000    0         
C20              J16              J15              400        0.012      0.0000     0.0000     0.00000    0         
C22              J18              J15              500        0.013      0.0000     0.0000     0.00000    0         
C12              J9               J12              500        0.012      0.00000    0.00000    0.00000    0         
C17              J10              J12              200        0.012      0.0000     0.0000     0.00000    0         
C10              J8               T6               310.5      0.012      0.00000    0.00000    0.00000    0         
C13              J12              T3               375        0.012      0          0          0.00000    0         
C18              J13              T2               257        0.013      0.0000     0.0000     0.00000    0         
C23              J15              T1               305        0.013      0.0000     0.0000     0.00000    0         
C4               J1               T5               278        0.012      0.0000     0.0000     0.00000    0         
C7               J5               T4               204        0.012      0.00000    0.00000    0.00000    0         
C14              J19              Out_to_WWTP      200        0.011      0.0000     0.0000     0.0000     0         
C5               CSO7             J4               100        0.014      0.0000     0.0000     0.0000     0         
C8               CSO9             J7               100        0.0185     0.0000     0.0000     0.00000    0         
C15              CSO8             J11              100        0.012      0.0000     0.0000     0.0000     0         
C21              CSO10            J18              100        0.02       0.00000    0.00000    0.00000    0         

[ORIFICES]
;;Name           From Node        To Node          Type         Offset     Qcoeff     Gated    CloseTime 
;;-------------- ---------------- ---------------- ------------ ---------- ---------- -------- ----------
V4               T4               J6               SIDE         0.00000    1          NO       0         
V5               T5               J2               SIDE         0.0000     1          NO       0         
V1               T1               J19              SIDE         0.00000    1          NO       0         
V6               T6               J9               SIDE         0.0000     1          NO       0         
V3               T3               J14              SIDE         0.0000     1          NO       0         
V2               T2               J17              SIDE         0.0000     1          NO       0         

[XSECTIONS]
;;Link           Shape        Geom1            Geom2      Geom3      Geom4      Barrels    Culvert   
;;-------------- ------------ ---------------- ---------- ---------- ---------- ---------- ----------
C1               CIRCULAR     1                0          0          0          1                    
C6               CIRCULAR     0.3              0          0          0          1                    
C2               CIRCULAR     0.6              0          0          0          1                    
C9               CIRCULAR     0.5              0          0          0          1                    
C16              CIRCULAR     2                0          0          0          1                    
C3               CIRCULAR     1                0          0          0          1                    
C19              CIRCULAR     1                0          0          0          1                    
C11              CIRCULAR     2                0          0          0          1                    
C20              CIRCULAR     2                0          0          0          1                    
C22              CIRCULAR     0.8              0          0          0          1                    
C12              CIRCULAR     2                0          0          0          1                    
C17              CIRCULAR     2                0          0          0          1                    
C10              CIRCULAR     1.5              0          0          0          1                    
C13              CIRCULAR     2                0          0          0          1                    
C18              CIRCULAR     2                0          0          0          1                    
C23              CIRCULAR     1.5              0          0          0          1                    
C4               CIRCULAR     1                0          0          0          1                    
C7               CIRCULAR     1                0          0          0          1                    
C14              CIRCULAR     2                0          0          0          1                    
C5               CIRCULAR     0.2555           0          0          0          1                    
C8               CIRCULAR     0.318            0          0          0          1                    
C15              CIRCULAR     0.453            0          0          0          1                    
C21              CIRCULAR     0.44             0          0          0          1                    
V4               RECT_CLOSED  0.0264           0.3048     0          0
V5               RECT_CLOSED  0.013            0.3048     0          0
V1               RECT_CLOSED  0.09             0.3048     0          0
V6               RECT_CLOSED  0.0581           0.3048     0          0
V3               RECT_CLOSED  0.063            0.3048     0          0
V2               RECT_CLOSED  0.0465           0.3048     0          0

[LOSSES]
;;Link           Kentry     Kexit      Kavg       Flap Gate  Seepage   
;;-------------- ---------- ---------- ---------- ---------- ----------
C1               0.00000    0.00000    0.00000    NO         0.00000   
C6               0.00000    0.00000    0.00000    NO         0.00000   
C2               0.00000    0.00000    0.00000    NO         0.00000   
C9               0.00000    0.00000    0.00000    NO         0.00000   
C16              0.00000    0.00000    0.00000    NO         0         
C3               0.00000    0.00000    0.00000    NO         0         
C19              0.00000    0.00000    0.00000    NO         0.00000   
C11              0.00000    0.00000    0.00000    NO         0.00000   
C20              0.00000    0.00000    0.00000    NO         0.0000    
C22              0.00000    0.00000    0.00000    NO         0.0000    
C12              0.00000    0.00000    0.00000    NO         0.00000   
C17              0.00000    0.00000    0.00000    NO         0.0000    
C10              0.00000    0.00000    0.00000    NO         0.00000   
C13              0.00000    0.00000    0.00000    NO         0         
C18              0.00000    0.00000    0.00000    NO         0.0000    
C23              0.00000    0.00000    0.00000    NO         0.0000    
C4               0.00000    0.00000    0.00000    NO         0.00000   
C7               0.00000    0.00000    0.00000    NO         0.00000   
C14              0.0000     0.0000     0.0000     NO         0.0000    
C5               0.00000    0.00000    0.00000    NO         0.00000   
C8               0.00000    0.00000    0.00000    NO         0.00000   
C15              0.0000     0.0000     0.0000     NO         0.0000    
C21              0.00000    0.00000    0.00000    NO         0.00000   

[CONTROLS]
RULE R0
IF SIMULATION TIME > 0
THEN ORIFICE V1 SETTING = TIMESERIES pump_0

RULE R1
IF SIMULATION TIME > 0
THEN ORIFICE V2 SETTING = TIMESERIES pump_1

RULE R2
IF SIMULATION TIME > 0
THEN ORIFICE V3 SETTING = TIMESERIES pump_2

RULE R3
IF SIMULATION TIME > 0
THEN ORIFICE V4 SETTING = TIMESERIES pump_3

RULE R4
IF SIMULATION TIME > 0
THEN ORIFICE V5 SETTING = TIMESERIES pump_4

RULE R5
IF SIMULATION TIME > 0
THEN ORIFICE V6 SETTING = TIMESERIES pump_5



[DWF]
;;Node           Constituent      Baseline   Patterns  
;;-------------- ---------------- ---------- ----------
J1               FLOW             0.01269    "" "DWF"
CSO7             FLOW             0.00656    "" "DWF"
J5               FLOW             0.00288    "" "DWF"
CSO9             FLOW             0.00443    "" "DWF"
J8               FLOW             0.02126    "" "DWF"
CSO8             FLOW             0.00518    "DWFCommercial0"
J10              FLOW             0.00871    "" "DWF"
J13              FLOW             0.01056    "" "DWF"
J16              FLOW             0.01251    "" "DWF"
CSO10            FLOW             0.00314    "" "DWF"

[CURVES]
;;Name           Type       X-Value    Y-Value   
;;-------------- ---------- ---------- ----------
Tank1            Storage    0          140       
Tank1                       5          140       
;
Tank2            Storage    0          200       
Tank2                       5          200       
;
Tank3            Storage    0          520       
Tank3                       5          520       
;
Tank4            Storage    0          100       
Tank4                       5          100       
;
Tank5            Storage    0          100       
Tank5                       5          100       
;
Tank6            Storage    0          120       
Tank6                       5          120       

[TIMESERIES]
;;Name           Date       Time       Value     
;;-------------- ---------- ---------- ----------
pump_0           8/28/2015  08:10      2.120152844274929
pump_0           8/28/2015  08:20      1.7141901041472796
pump_0           8/28/2015  08:30      1.8488165221406563
pump_0           8/28/2015  08:40      1.8693361304840508
pump_0           8/28/2015  08:50      1.8622239662489577
pump_0           8/28/2015  09:00      1.8069134356285892
pump_0           8/28/2015  09:10      1.8358218905009687
pump_0           8/28/2015  09:20      1.8782657640290719
pump_0           8/28/2015  09:30      1.9102793868758479
pump_0           8/28/2015  09:40      1.7563097104947967
pump_0           8/28/2015  09:50      1.862993049643073
pump_0           8/28/2015  10:00      1.8376424697461708
pump_0           8/28/2015  10:10      1.89280406100859
pump_0           8/28/2015  10:20      1.9093818301369354
pump_0           8/28/2015  10:30      1.7818371766654257
pump_0           8/28/2015  10:40      1.8923894884070154
pump_0           8/28/2015  10:50      1.8164480083412249
pump_0           8/28/2015  11:00      1.9064578825707432
pump_0           8/28/2015  11:10      2.017042556577663
pump_0           8/28/2015  11:20      1.8660648822155501
pump_0           8/28/2015  11:30      1.8282951102251728
pump_0           8/28/2015  11:40      1.9739286235462745
pump_0           8/28/2015  11:50      1.7998652186970974
pump_0           8/28/2015  12:00      1.9299378640168974
pump_0           8/28/2015  12:10      1.8557025096950195
pump_0           8/28/2015  12:20      2.021356892403502
pump_0           8/28/2015  12:30      1.7937803952449158
pump_0           8/28/2015  12:40      1.659972652811236
pump_0           8/28/2015  12:50      1.890325782828723
pump_0           8/28/2015  13:00      1.871486353496954
pump_0           8/28/2015  13:10      1.8761493818984651
pump_0           8/28/2015  13:20      1.9843088733125622
pump_0           8/28/2015  13:30      1.9929188496063408
pump_0           8/28/2015  13:40      1.7451628570762654
pump_0           8/28/2015  13:50      1.8623060661475166
pump_0           8/28/2015  14:00      1.926446847289522
pump_0           8/28/2015  14:10      1.823186849073487
pump_0           8/28/2015  14:20      1.9796869565818866
pump_0           8/28/2015  14:30      1.8763131388172174
pump_0           8/28/2015  14:40      1.8867347053278458
pump_0           8/28/2015  14:50      1.869289763203366
pump_0           8/28/2015  15:00      1.8270077262595903
pump_0           8/28/2015  15:10      1.9604150319627403
pump_0           8/28/2015  15:20      1.8918321582637803
pump_0           8/28/2015  15:30      1.992945399073846
pump_0           8/28/2015  15:40      1.7144194849380234
;
pump_1           8/28/2015  08:10      1.3567528442749288
pump_1           8/28/2015  08:20      0.9507901041472796
pump_1           8/28/2015  08:30      0.9563165221406563
pump_1           8/28/2015  08:40      0.9768361304840508
pump_1           8/28/2015  08:50      0.9697239662489577
pump_1           8/28/2015  09:00      0.9144134356285892
pump_1           8/28/2015  09:10      0.9433218905009688
pump_1           8/28/2015  09:20      0.9857657640290718
pump_1           8/28/2015  09:30      1.0177793868758478
pump_1           8/28/2015  09:40      0.8638097104947967
pump_1           8/28/2015  09:50      0.970493049643073
pump_1           8/28/2015  10:00      0.9451424697461709
pump_1           8/28/2015  10:10      1.12940406100859
pump_1           8/28/2015  10:20      1.1459818301369356
pump_1           8/28/2015  10:30      1.0184371766654257
pump_1           8/28/2015  10:40      1.1289894884070155
pump_1           8/28/2015  10:50      1.0530480083412248
pump_1           8/28/2015  11:00      1.1430578825707431
pump_1           8/28/2015  11:10      1.2536425565776628
pump_1           8/28/2015  11:20      1.10266488221555
pump_1           8/28/2015  11:30      1.0648951102251727
pump_1           8/28/2015  11:40      1.2105286235462747
pump_1           8/28/2015  11:50      1.0364652186970973
pump_1           8/28/2015  12:00      1.1665378640168973
pump_1           8/28/2015  12:10      1.0923025096950194
pump_1           8/28/2015  12:20      1.2579568924035023
pump_1           8/28/2015  12:30      1.0303803952449158
pump_1           8/28/2015  12:40      0.8965726528112359
pump_1           8/28/2015  12:50      1.1269257828287231
pump_1           8/28/2015  13:00      1.1080863534969538
pump_1           8/28/2015  13:10      1.1127493818984653
pump_1           8/28/2015  13:20      1.2209088733125621
pump_1           8/28/2015  13:30      1.229518849606341
pump_1           8/28/2015  13:40      0.9817628570762654
pump_1           8/28/2015  13:50      1.0989060661475167
pump_1           8/28/2015  14:00      1.1630468472895221
pump_1           8/28/2015  14:10      1.059786849073487
pump_1           8/28/2015  14:20      1.2162869565818866
pump_1           8/28/2015  14:30      1.1129131388172175
pump_1           8/28/2015  14:40      1.1233347053278457
pump_1           8/28/2015  14:50      1.1058897632033662
pump_1           8/28/2015  15:00      1.0636077262595902
pump_1           8/28/2015  15:10      1.1970150319627402
pump_1           8/28/2015  15:20      1.1284321582637802
pump_1           8/28/2015  15:30      1.2295453990738459
pump_1           8/28/2015  15:40      0.9510194849380235
;
pump_2           8/28/2015  08:10      1.770952844274929
pump_2           8/28/2015  08:20      1.3649901041472796
pump_2           8/28/2015  08:30      1.4996165221406563
pump_2           8/28/2015  08:40      1.5201361304840508
pump_2           8/28/2015  08:50      1.5130239662489577
pump_2           8/28/2015  09:00      1.4577134356285892
pump_2           8/28/2015  09:10      1.486621890500969
pump_2           8/28/2015  09:20      1.5290657640290717
pump_2           8/28/2015  09:30      1.561079386875848
pump_2           8/28/2015  09:40      1.4071097104947967
pump_2           8/28/2015  09:50      1.513793049643073
pump_2           8/28/2015  10:00      1.488442469746171
pump_2           8/28/2015  10:10      1.2087040610085902
pump_2           8/28/2015  10:20      1.2252818301369355
pump_2           8/28/2015  10:30      1.4326371766654258
pump_2           8/28/2015  10:40      1.2082894884070154
pump_2           8/28/2015  10:50      1.132348008341225
pump_2           8/28/2015  11:00      1.222357882570743
pump_2           8/28/2015  11:10      1.332942556577663
pump_2           8/28/2015  11:20      1.1819648822155502
pump_2           8/28/2015  11:30      1.1441951102251726
pump_2           8/28/2015  11:40      1.2898286235462746
pump_2           8/28/2015  11:50      1.1157652186970972
pump_2           8/28/2015  12:00      1.2458378640168974
pump_2           8/28/2015  12:10      1.1716025096950196
pump_2           8/28/2015  12:20      1.3372568924035024
pump_2           8/28/2015  12:30      1.109680395244916
pump_2           8/28/2015  12:40      0.9758726528112358
pump_2           8/28/2015  12:50      1.206225782828723
pump_2           8/28/2015  13:00      1.187386353496954
pump_2           8/28/2015  13:10      1.1920493818984652
pump_2           8/28/2015  13:20      1.300208873312562
pump_2           8/28/2015  13:30      1.3088188496063409
pump_2           8/28/2015  13:40      1.0610628570762655
pump_2           8/28/2015  13:50      1.1782060661475167
pump_2           8/28/2015  14:00      1.242346847289522
pump_2           8/28/2015  14:10      1.1390868490734871
pump_2           8/28/2015  14:20      1.2955869565818865
pump_2           8/28/2015  14:30      1.1922131388172175
pump_2           8/28/2015  14:40      1.2026347053278459
pump_2           8/28/2015  14:50      1.185189763203366
pump_2           8/28/2015  15:00      1.1429077262595904
pump_2           8/28/2015  15:10      1.2763150319627403
pump_2           8/28/2015  15:20      1.2077321582637803
pump_2           8/28/2015  15:30      1.308845399073846
pump_2           8/28/2015  15:40      1.0303194849380235
;
pump_3           8/28/2015  08:10      1.309552844274929
pump_3           8/28/2015  08:20      0.9035901041472796
pump_3           8/28/2015  08:30      1.0382165221406563
pump_3           8/28/2015  08:40      1.0587361304840508
pump_3           8/28/2015  08:50      1.0516239662489577
pump_3           8/28/2015  09:00      0.9963134356285892
pump_3           8/28/2015  09:10      1.0252218905009687
pump_3           8/28/2015  09:20      1.0676657640290719
pump_3           8/28/2015  09:30      1.0996793868758479
pump_3           8/28/2015  09:40      0.9457097104947967
pump_3           8/28/2015  09:50      1.0523930496430731
pump_3           8/28/2015  10:00      1.0270424697461709
pump_3           8/28/2015  10:10      1.0822040610085901
pump_3           8/28/2015  10:20      1.0987818301369354
pump_3           8/28/2015  10:30      0.9712371766654257
pump_3           8/28/2015  10:40      1.2446894884070154
pump_3           8/28/2015  10:50      1.168748008341225
pump_3           8/28/2015  11:00      1.258757882570743
pump_3           8/28/2015  11:10      1.369342556577663
pump_3           8/28/2015  11:20      1.2183648822155502
pump_3           8/28/2015  11:30      1.1805951102251726
pump_3           8/28/2015  11:40      1.3262286235462746
pump_3           8/28/2015  11:50      1.1521652186970972
pump_3           8/28/2015  12:00      1.2822378640168974
pump_3           8/28/2015  12:10      1.2080025096950195
pump_3           8/28/2015  12:20      1.3736568924035024
pump_3           8/28/2015  12:30      1.146080395244916
pump_3           8/28/2015  12:40      1.0122726528112358
pump_3           8/28/2015  12:50      1.242625782828723
pump_3           8/28/2015  13:00      1.223786353496954
pump_3           8/28/2015  13:10      1.2284493818984652
pump_3           8/28/2015  13:20      1.336608873312562
pump_3           8/28/2015  13:30      1.3452188496063409
pump_3           8/28/2015  13:40      1.0974628570762655
pump_3           8/28/2015  13:50      1.2146060661475166
pump_3           8/28/2015  14:00      1.278746847289522
pump_3           8/28/2015  14:10      1.175486849073487
pump_3           8/28/2015  14:20      1.3319869565818865
pump_3           8/28/2015  14:30      1.2286131388172175
pump_3           8/28/2015  14:40      1.2390347053278459
pump_3           8/28/2015  14:50      1.221589763203366
pump_3           8/28/2015  15:00      1.1793077262595903
pump_3           8/28/2015  15:10      1.3127150319627403
pump_3           8/28/2015  15:20      1.2441321582637803
pump_3           8/28/2015  15:30      1.345245399073846
pump_3           8/28/2015  15:40      1.0667194849380235
;
pump_4           8/28/2015  08:10      2.120152844274929
pump_4           8/28/2015  08:20      1.7141901041472796
pump_4           8/28/2015  08:30      1.8488165221406563
pump_4           8/28/2015  08:40      1.8693361304840508
pump_4           8/28/2015  08:50      1.8622239662489577
pump_4           8/28/2015  09:00      1.8069134356285892
pump_4           8/28/2015  09:10      1.8358218905009687
pump_4           8/28/2015  09:20      1.8782657640290719
pump_4           8/28/2015  09:30      1.9102793868758479
pump_4           8/28/2015  09:40      1.7563097104947967
pump_4           8/28/2015  09:50      1.862993049643073
pump_4           8/28/2015  10:00      1.8376424697461708
pump_4           8/28/2015  10:10      1.89280406100859
pump_4           8/28/2015  10:20      1.9093818301369354
pump_4           8/28/2015  10:30      1.7818371766654257
pump_4           8/28/2015  10:40      1.8923894884070154
pump_4           8/28/2015  10:50      1.8164480083412249
pump_4           8/28/2015  11:00      1.9064578825707432