[TITLE]
;;Project Title/Notes

[OPTIONS]
;;Option             Value
FLOW_UNITS           CMS
INFILTRATION         HORTON
FLOW_ROUTING         DYNWAVE
LINK_OFFSETS         DEPTH
MIN_SLOPE            0
ALLOW_PONDING        YES
SKIP_STEADY_STATE    NO

START_DATE           08/28/2015
START_TIME           08:00
REPORT_START_DATE    08/28/2015
REPORT_START_TIME    08:00
END_DATE             08/28/2015
END_TIME             15:50
SWEEP_START          01/01
SWEEP_END            12/31
DRY_DAYS             0
REPORT_STEP          00:01:00
WET_STEP             00:01:00
DRY_STEP             00:01:00
ROUTING_STEP         0:00:05 
RULE_STEP            00:00:00

INERTIAL_DAMPING     PARTIAL
NORMAL_FLOW_LIMITED  BOTH
FORCE_MAIN_EQUATION  H-W
VARIABLE_STEP        0.75
LENGTHENING_STEP     0
MIN_SURFAREA         1.167
MAX_TRIALS           8
HEAD_TOLERANCE       0.0015
SYS_FLOW_TOL         5
LAT_FLOW_TOL         5
MINIMUM_STEP         0.5
THREADS              1

[EVAPORATION]
;;Data Source    Parameters
;;-------------- ----------------
CONSTANT         0.0
DRY_ONLY         NO

[RAINGAGES]
;;Name           Format    Interval SCF      Source    
;;-------------- --------- ------ ------ ----------
RG1              INTENSITY 0:01     1.0      TIMESERIES Oneyear-2h      
RG2              INTENSITY 0:01     1.0      TIMESERIES Oneyear-2h      
RG3              INTENSITY 0:01     1.0      TIMESERIES Oneyear-2h      
RG4              INTENSITY 0:01     1.0      TIMESERIES Oneyear-2h      

[SUBCATCHMENTS]
;;Name           Rain Gage        Outlet           Area     %Imperv  Width    %Slope   CurbLen  SnowPack        
;;-------------- ---------------- ---------------- -------- -------- -------- -------- -------- ----------------
SC01             RG4              J16              33       100      2400     0.8      0.0                      
SC02             RG3              J13              22.75    100      1500     0.8      0                        
SC03             RG1              J10              18       100      2000     0.5      0                        
SC04             RG3              J5               6.9      100      200      0.7      0                        
SC05             RG4              J1               15.6     100      1000     0.5      0                        
SC06             RG2              J8               32.55    100      985      0.5      0                        
SC07             RG3              CSO7             4.75     100      360      0.51     0                        
SC08             RG1              CSO8             28       100      1950     0.45     0                        
SC09             RG2              CSO9             6.9      100      650      0.4      0                        
SC010            RG4              CSO10            11.75    100      650      0.5      0                        

[SUBAREAS]
;;Subcatchment   N-Imperv   N-Perv     S-Imperv   S-Perv     PctZero    RouteTo    PctRouted 
;;-------------- ---------- ---------- ---------- ---------- ---------- ---------- ----------
SC01             0.009      0.10       0.05       0.05       0.0        OUTLET    
SC02             0.009      0.1        0.05       0.05       0          OUTLET    
SC03             0.007      0.1        0.05       0.05       0          OUTLET    
SC04             0.009      0.1        0.05       0.05       0          OUTLET    
SC05             0.007      0.1        0.05       0.05       0          OUTLET    
SC06             0.01       0.1        0.05       0.05       0          OUTLET    
SC07             0.02       0.1        0.05       0.05       0          OUTLET    
SC08             0.01       0.1        0.05       0.05       0          OUTLET    
SC09             0.016      0.1        0.05       0.05       0          OUTLET    
SC010            0.008      0.1        0.05       0.05       0          OUTLET    

[INFILTRATION]
;;Subcatchment   MaxRate    MinRate    Decay      DryTime    MaxInfil  
;;-------------- ---------- ---------- ---------- ---------- ----------
SC01             3.0        0.5        4          7          0         
SC02             3.0        0.5        4          7          0         
SC03             3.0        0.5        4          7          0         
SC04             3.0        0.5        4          7          0         
SC05             3.0        0.5        4          7          0         
SC06             3.0        0.5        4          7          0         
SC07             3.0        0.5        4          7          0         
SC08             3.0        0.5        4          7          0         
SC09             3.0        0.5        4          7          0         
SC010            3.0        0.5        4          7          0         

[JUNCTIONS]
;;Name           Elevation  MaxDepth   InitDepth  SurDepth   Aponded   
;;-------------- ---------- ---------- ---------- ---------- ----------
J1               34.000000  2          0.000000   05.000000  0.000000  
J3               18.000000  2          0.000000   0.000000   0.000000  
CSO7             34.00000   1.2        0.000000   0.000000   0.000     
J5               32.00000   2.000000   0.000000   0.000000   0.000000  
CSO9             40.000000  2          0.000000   0.000000   0.000000  
J8               36.000000  3.000000   0.000000   0.000000   0.000000  
CSO8             32.000000  2          0.000000   0.00000    0.00000   
J10              29.000000  2.000000   0.000000   0.000000   0.000000  
J13              29.000000  2.000000   0.000000   0.000000   0.000000  
J15              15.000000  3.000000   0.000000   0.000000   0.000000  
J16              30.000000  2.000000   0.000000   0.000000   0.000000  
CSO10            30.000000  1.00000    0.000000   0.000000   0.000000  
J12              26.000000  2.000000   0.000000   0.000000   0.000000  
J4               33         2.0        0.00000    0.00000    0.00000   
J6               25         2          0.0000     0.0000     0.0000    
J2               25         2          0.00000    0.00000    0.00000   
J19              8          2          0.0000     0.0000     0.0000    
J9               29         2          0.0000     0.0000     0.0000    
J14              20         2          0.0000     0.0000     0.0000    
J17              20         2          0.0000     0.0000     0.0000    
J7               39         2          0.00000    0.00000    0.00000   
J11              31         2          0.0000     0.0000     0.0000    
J18              29         2          0.0000     0.0000     0.0000    

[OUTFALLS]
;;Name           Elevation  Type       Stage Data       Gated    Route To        
;;-------------- ---------- ---------- ---------------- -------- ----------------
Out_to_WWTP      6          FREE                        NO                       

[STORAGE]
;;Name           Elev.    MaxDepth   InitDepth  Shape      Curve Name/Params            N/A      Fevap    Psi      Ksat     IMD     
;;-------------- -------- ---------- ----------- ---------- ---------------------------- -------- --------          -------- --------
T5               27.000000 5.000000   0.000000   TABULAR    Tank5                        0.000000 0.000000
T4               27.000000 5.000000   0.000000   TABULAR    Tank4                        0.000000 0.000000
T6               31.000000 5.000000   0.000000   TABULAR    Tank6                        0        0       
T3               22.000000 5.000000   0.000000   TABULAR    Tank3                        0.000000 0.000000
T2               21.000000 5.000000   0.000000   TABULAR    Tank2                        0.000000 0.000000
T1               10.000000 5.000000   0.000000   TABULAR    Tank1                        0.000000 0.000000

[CONDUITS]
;;Name           From Node        To Node          Length     Roughness  InOffset   OutOffset  InitFlow   MaxFlow   
;;-------------- ---------------- ---------------- ---------- ---------- ---------- ---------- ---------- ----------
C1               J2               J3               400        0.013      0.00000    0.00000    0.00000    0         
C6               J4               J5               400        0.01       0.00000    0.00000    0.00000    0         
C2               J6               J3               400        0.012      0.00000    0.00000    0.00000    0         
C9               J7               J8               500        0.013      0.00000    0.00000    0.00000    0         
C16              J11              J10              500        0.012      0.0000     0.0000     0.00000    0         
C3               J14              J3               200        0.012      0.000      0.000      0.00000    0         
C19              J17              J15              400        0.012      0.00000    0.00000    0.00000    0         
C11              J3               J15              200        0.012      0.0000     0.0000     0.00000    0         
C20              J16              J15              400        0.012      0.0000     0.0000     0.00000    0         
C22              J18              J15              500        0.013      0.0000     0.0000     0.00000    0         
C12              J9               J12              500        0.012      0.00000    0.00000    0.00000    0         
C17              J10              J12              200        0.012      0.0000     0.0000     0.00000    0         
C10              J8               T6               310.5      0.012      0.00000    0.00000    0.00000    0         
C13              J12              T3               375        0.012      0          0          0.00000    0         
C18              J13              T2               257        0.013      0.0000     0.0000     0.00000    0         
C23              J15              T1               305        0.013      0.0000     0.0000     0.00000    0         
C4               J1               T5               278        0.012      0.0000     0.0000     0.00000    0         
C7               J5               T4               204        0.012      0.00000    0.00000    0.00000    0         
C14              J19              Out_to_WWTP      200        0.011      0.0000     0.0000     0.0000     0         
C5               CSO7             J4               100        0.014      0.0000     0.0000     0.0000     0         
C8               CSO9             J7               100        0.0185     0.0000     0.0000     0.00000    0         
C15              CSO8             J11              100        0.012      0.0000     0.0000     0.0000     0         
C21              CSO10            J18              100        0.02       0.00000    0.00000    0.00000    0         

[ORIFICES]
;;Name           From Node        To Node          Type         Offset     Qcoeff     Gated    CloseTime 
;;-------------- ---------------- ---------------- ------------ ---------- ---------- -------- ----------
V4               T4               J6               SIDE         0.00000    1          NO       0         
V5               T5               J2               SIDE         0.0000     1          NO       0         
V1               T1               J19              SIDE         0.00000    1          NO       0         
V6               T6               J9               SIDE         0.0000     1          NO       0         
V3               T3               J14              SIDE         0.0000     1          NO       0         
V2               T2               J17              SIDE         0.0000     1          NO       0         

[XSECTIONS]
;;Link           Shape        Geom1            Geom2      Geom3      Geom4      Barrels    Culvert   
;;-------------- ------------ ---------------- ---------- ---------- ---------- ---------- ----------
C1               CIRCULAR     1                0          0          0          1                    
C6               CIRCULAR     0.3              0          0          0          1                    
C2               CIRCULAR     0.6              0          0          0          1                    
C9               CIRCULAR     0.5              0          0          0          1                    
C16              CIRCULAR     2                0          0          0          1                    
C3               CIRCULAR     1                0          0          0          1                    
C19              CIRCULAR     1                0          0          0          1                    
C11              CIRCULAR     2                0          0          0          1                    
C20              CIRCULAR     2                0          0          0          1                    
C22              CIRCULAR     0.8              0          0          0          1                    
C12              CIRCULAR     2                0          0          0          1                    
C17              CIRCULAR     2                0          0          0          1                    
C10              CIRCULAR     1.5              0          0          0          1                    
C13              CIRCULAR     2                0          0          0          1                    
C18              CIRCULAR     2                0          0          0          1                    
C23              CIRCULAR     1.5              0          0          0          1                    
C4               CIRCULAR     1                0          0          0          1                    
C7               CIRCULAR     1                0          0          0          1                    
C14              CIRCULAR     2                0          0          0          1                    
C5               CIRCULAR     0.2555           0          0          0          1                    
C8               CIRCULAR     0.318            0          0          0          1                    
C15              CIRCULAR     0.453            0          0          0          1                    
C21              CIRCULAR     0.44             0          0          0          1                    
V4               RECT_CLOSED  0.0264           0.3048     0          0
V5               RECT_CLOSED  0.013            0.3048     0          0
V1               RECT_CLOSED  0.09             0.3048     0          0
V6               RECT_CLOSED  0.0581           0.3048     0          0
V3               RECT_CLOSED  0.063            0.3048     0          0
V2               RECT_CLOSED  0.0465           0.3048     0          0

[LOSSES]
;;Link           Kentry     Kexit      Kavg       Flap Gate  Seepage   
;;-------------- ---------- ---------- ---------- ---------- ----------
C1               0.00000    0.00000    0.00000    NO         0.00000   
C6               0.00000    0.00000    0.00000    NO         0.00000   
C2               0.00000    0.00000    0.00000    NO         0.00000   
C9               0.00000    0.00000    0.00000    NO         0.00000   
C16              0.00000    0.00000    0.00000    NO         0         
C3               0.00000    0.00000    0.00000    NO         0         
C19              0.00000    0.00000    0.00000    NO         0.00000   
C11              0.00000    0.00000    0.00000    NO         0.00000   
C20              0.00000    0.00000    0.00000    NO         0.0000    
C22              0.00000    0.00000    0.00000    NO         0.0000    
C12              0.00000    0.00000    0.00000    NO         0.00000   
C17              0.00000    0.00000    0.00000    NO         0.0000    
C10              0.00000    0.00000    0.00000    NO         0.00000   
C13              0.00000    0.00000    0.00000    NO         0         
C18              0.00000    0.00000    0.00000    NO         0.0000    
C23              0.00000    0.00000    0.00000    NO         0.0000    
C4               0.00000    0.00000    0.00000    NO         0.00000   
C7               0.00000    0.00000    0.00000    NO         0.00000   
C14              0.0000     0.0000     0.0000     NO         0.0000    
C5               0.00000    0.00000    0.00000    NO         0.00000   
C8               0.00000    0.00000    0.00000    NO         0.00000   
C15              0.0000     0.0000     0.0000     NO         0.0000    
C21              0.00000    0.00000    0.00000    NO         0.00000   

[CONTROLS]
RULE R0
IF SIMULATION TIME > 0
THEN ORIFICE V1 SETTING = TIMESERIES pump_0

RULE R1
IF SIMULATION TIME > 0
THEN ORIFICE V2 SETTING = TIMESERIES pump_1

RULE R2
IF SIMULATION TIME > 0
THEN ORIFICE V3 SETTING = TIMESERIES pump_2

RULE R3
IF SIMULATION TIME > 0
THEN ORIFICE V4 SETTING = TIMESERIES pump_3

RULE R4
IF SIMULATION TIME > 0
THEN ORIFICE V5 SETTING = TIMESERIES pump_4

RULE R5
IF SIMULATION TIME > 0
THEN ORIFICE V6 SETTING = TIMESERIES pump_5



[DWF]
;;Node           Constituent      Baseline   Patterns  
;;-------------- ---------------- ---------- ----------
J1               FLOW             0.01269    "" "DWF"
CSO7             FLOW             0.00656    "" "DWF"
J5               FLOW             0.00288    "" "DWF"
CSO9             FLOW             0.00443    "" "DWF"
J8               FLOW             0.02126    "" "DWF"
CSO8             FLOW             0.00518    "DWFCommercial0"
J10              FLOW             0.00871    "" "DWF"
J13              FLOW             0.01056    "" "DWF"
J16              FLOW             0.01251    "" "DWF"
CSO10            FLOW             0.00314    "" "DWF"

[CURVES]
;;Name           Type       X-Value    Y-Value   
;;-------------- ---------- ---------- ----------
Tank1            Storage    0          140       
Tank1                       5          140       
;
Tank2            Storage    0          200       
Tank2                       5          200       
;
Tank3            Storage    0          520       
Tank3                       5          520       
;
Tank4            Storage    0          100       
Tank4                       5          100       
;
Tank5            Storage    0          100       
Tank5                       5          100       
;
Tank6            Storage    0          120       
Tank6                       5          120       

[TIMESERIES]
;;Name           Date       Time       Value     
;;-------------- ---------- ---------- ----------
pump_0           8/28/2015  08:10      1.8333306732186356
pump_0           8/28/2015  08:20      1.7003589296805153
pump_0           8/28/2015  08:30      2.068043143527258
pump_0           8/28/2015  08:40      1.8142985482911782
pump_0           8/28/2015  08:50      2.0741304498672344
pump_0           8/28/2015  09:00      1.8939348691945699
pump_0           8/28/2015  09:10      1.859438982990112
pump_0           8/28/2015  09:20      2.04923520435369
pump_0           8/28/2015  09:30      1.7563086757501374
pump_0           8/28/2015  09:40      1.965418965249302
pump_0           8/28/2015  09:50      1.9057509996617388
pump_0           8/28/2015  10:00      1.9970696110770483
pump_0           8/28/2015  10:10      1.8348488328402865
pump_0           8/28/2015  10:20      1.6957031789486008
pump_0           8/28/2015  10:30      2.020461247551821
pump_0           8/28/2015  10:40      2.0475116867819745
pump_0           8/28/2015  10:50      1.8957072395655326
pump_0           8/28/2015  11:00      1.8751101144961537
pump_0           8/28/2015  11:10      1.9440552210397675
pump_0           8/28/2015  11:20      1.918904516453554
pump_0           8/28/2015  11:30      1.9736248907389045
pump_0           8/28/2015  11:40      1.831583665189616
pump_0           8/28/2015  11:50      1.870150715505262
pump_0           8/28/2015  12:00      2.0186610525911575
pump_0           8/28/2015  12:10      2.0171364095498214
pump_0           8/28/2015  12:20      1.791887139947372
pump_0           8/28/2015  12:30      1.9304566470951752
pump_0           8/28/2015  12:40      1.8908591173841813
pump_0           8/28/2015  12:50      1.9743292665818786
pump_0           8/28/2015  13:00      1.6768666035545163
pump_0           8/28/2015  13:10      1.9116695378239208
pump_0           8/28/2015  13:20      1.8774851890165885
pump_0           8/28/2015  13:30      1.9111238409001032
pump_0           8/28/2015  13:40      2.0404853935176384
pump_0           8/28/2015  13:50      1.7198840090175054
pump_0           8/28/2015  14:00      1.7773988113834736
pump_0           8/28/2015  14:10      1.8843276536861446
pump_0           8/28/2015  14:20      1.8068977764668237
pump_0           8/28/2015  14:30      1.9009659499265203
pump_0           8/28/2015  14:40      1.9622645497290763
pump_0           8/28/2015  14:50      1.8753900442109255
pump_0           8/28/2015  15:00      1.9244227959181774
pump_0           8/28/2015  15:10      2.042065503786583
pump_0           8/28/2015  15:20      2.033377422690142
pump_0           8/28/2015  15:30      1.7466281972096338
pump_0           8/28/2015  15:40      1.8396493274031513
;
pump_1           8/28/2015  08:10      1.0699306732186356
pump_1           8/28/2015  08:20      0.9369589296805152
pump_1           8/28/2015  08:30      1.1755431435272576
pump_1           8/28/2015  08:40      0.9217985482911784
pump_1           8/28/2015  08:50      1.181630449867234
pump_1           8/28/2015  09:00      1.00143486919457
pump_1           8/28/2015  09:10      0.9669389829901119
pump_1           8/28/2015  09:20      1.15673520435369
pump_1           8/28/2015  09:30      0.8638086757501374
pump_1           8/28/2015  09:40      1.072918965249302
pump_1           8/28/2015  09:50      1.0132509996617387
pump_1           8/28/2015  10:00      1.1045696110770482
pump_1           8/28/2015  10:10      1.0714488328402865
pump_1           8/28/2015  10:20      0.9323031789486009
pump_1           8/28/2015  10:30      1.2570612475518206
pump_1           8/28/2015  10:40      1.2841116867819746
pump_1           8/28/2015  10:50      1.1323072395655325
pump_1           8/28/2015  11:00      1.1117101144961539
pump_1           8/28/2015  11:10      1.1806552210397674
pump_1           8/28/2015  11:20      1.155504516453554
pump_1           8/28/2015  11:30      1.2102248907389046
pump_1           8/28/2015  11:40      1.068183665189616
pump_1           8/28/2015  11:50      1.1067507155052618
pump_1           8/28/2015  12:00      1.2552610525911574
pump_1           8/28/2015  12:10      1.2537364095498214
pump_1           8/28/2015  12:20      1.028487139947372
pump_1           8/28/2015  12:30      1.167056647095175
pump_1           8/28/2015  12:40      1.1274591173841813
pump_1           8/28/2015  12:50      1.2109292665818785
pump_1           8/28/2015  13:00      0.9134666035545164
pump_1           8/28/2015  13:10      1.148269537823921
pump_1           8/28/2015  13:20      1.1140851890165884
pump_1           8/28/2015  13:30      1.1477238409001032
pump_1           8/28/2015  13:40      1.277085393517638
pump_1           8/28/2015  13:50      0.9564840090175055
pump_1           8/28/2015  14:00      1.0139988113834735
pump_1           8/28/2015  14:10      1.1209276536861446
pump_1           8/28/2015  14:20      1.0434977764668236
pump_1           8/28/2015  14:30      1.1375659499265203
pump_1           8/28/2015  14:40      1.1988645497290762
pump_1           8/28/2015  14:50      1.1119900442109256
pump_1           8/28/2015  15:00      1.1610227959181774
pump_1           8/28/2015  15:10      1.2786655037865828
pump_1           8/28/2015  15:20      1.269977422690142
pump_1           8/28/2015  15:30      0.9832281972096337
pump_1           8/28/2015  15:40      1.0762493274031513
;
pump_2           8/28/2015  08:10      1.4841306732186357
pump_2           8/28/2015  08:20      1.351158929680515
pump_2           8/28/2015  08:30      1.7188431435272578
pump_2           8/28/2015  08:40      1.4650985482911785
pump_2           8/28/2015  08:50      1.7249304498672342
pump_2           8/28/2015  09:00      1.5447348691945701
pump_2           8/28/2015  09:10      1.510238982990112
pump_2           8/28/2015  09:20      1.7000352043536902
pump_2           8/28/2015  09:30      1.4071086757501374
pump_2           8/28/2015  09:40      1.6162189652493022
pump_2           8/28/2015  09:50      1.5565509996617388
pump_2           8/28/2015  10:00      1.647869611077048
pump_2           8/28/2015  10:10      1.1507488328402864
pump_2           8/28/2015  10:20      1.0116031789486009
pump_2           8/28/2015  10:30      1.6712612475518207
pump_2           8/28/2015  10:40      1.3634116867819748
pump_2           8/28/2015  10:50      1.2116072395655326
pump_2           8/28/2015  11:00      1.1910101144961538
pump_2           8/28/2015  11:10      1.2599552210397673
pump_2           8/28/2015  11:20      1.2348045164535542
pump_2           8/28/2015  11:30      1.2895248907389045
pump_2           8/28/2015  11:40      1.147483665189616
pump_2           8/28/2015  11:50      1.186050715505262
pump_2           8/28/2015  12:00      1.3345610525911575
pump_2           8/28/2015  12:10      1.3330364095498215
pump_2           8/28/2015  12:20      1.107787139947372
pump_2           8/28/2015  12:30      1.246356647095175
pump_2           8/28/2015  12:40      1.2067591173841812
pump_2           8/28/2015  12:50      1.2902292665818786
pump_2           8/28/2015  13:00      0.9927666035545164
pump_2           8/28/2015  13:10      1.2275695378239209
pump_2           8/28/2015  13:20      1.1933851890165885
pump_2           8/28/2015  13:30      1.227023840900103
pump_2           8/28/2015  13:40      1.3563853935176382
pump_2           8/28/2015  13:50      1.0357840090175054
pump_2           8/28/2015  14:00      1.0932988113834736
pump_2           8/28/2015  14:10      1.2002276536861447
pump_2           8/28/2015  14:20      1.1227977764668238
pump_2           8/28/2015  14:30      1.2168659499265204
pump_2           8/28/2015  14:40      1.2781645497290763
pump_2           8/28/2015  14:50      1.1912900442109255
pump_2           8/28/2015  15:00      1.2403227959181775
pump_2           8/28/2015  15:10      1.357965503786583
pump_2           8/28/2015  15:20      1.349277422690142
pump_2           8/28/2015  15:30      1.0625281972096337
pump_2           8/28/2015  15:40      1.1555493274031512
;
pump_3           8/28/2015  08:10      1.0227306732186356
pump_3           8/28/2015  08:20      0.8897589296805152
pump_3           8/28/2015  08:30      1.2574431435272577
pump_3           8/28/2015  08:40      1.0036985482911782
pump_3           8/28/2015  08:50      1.2635304498672342
pump_3           8/28/2015  09:00      1.08333486919457
pump_3           8/28/2015  09:10      1.048838982990112
pump_3           8/28/2015  09:20      1.2386352043536901
pump_3           8/28/2015  09:30      0.9457086757501374
pump_3           8/28/2015  09:40      1.154818965249302
pump_3           8/28/2015  09:50      1.0951509996617388
pump_3           8/28/2015  10:00      1.1864696110770483
pump_3           8/28/2015  10:10      1.0242488328402866
pump_3           8/28/2015  10:20      0.8851031789486009
pump_3           8/28/2015  10:30      1.2098612475518207
pump_3           8/28/2015  10:40      1.3998116867819748
pump_3           8/28/2015  10:50      1.2480072395655326
pump_3           8/28/2015  11:00      1.2274101144961538
pump_3           8/28/2015  11:10      1.2963552210397673
pump_3           8/28/2015  11:20      1.2712045164535541
pump_3           8/28/2015  11:30      1.3259248907389045
pump_3           8/28/2015  11:40      1.183883665189616
pump_3           8/28/2015  11:50      1.222450715505262
pump_3           8/28/2015  12:00      1.3709610525911575
pump_3           8/28/2015  12:10      1.3694364095498215
pump_3           8/28/2015  12:20      1.144187139947372
pump_3           8/28/2015  12:30      1.282756647095175
pump_3           8/28/2015  12:40      1.2431591173841812
pump_3           8/28/2015  12:50      1.3266292665818786
pump_3           8/28/2015  13:00      1.0291666035545164
pump_3           8/28/2015  13:10      1.2639695378239209
pump_3           8/28/2015  13:20      1.2297851890165885
pump_3           8/28/2015  13:30      1.263423840900103
pump_3           8/28/2015  13:40      1.3927853935176382
pump_3           8/28/2015  13:50      1.0721840090175054
pump_3           8/28/2015  14:00      1.1296988113834736
pump_3           8/28/2015  14:10      1.2366276536861447
pump_3           8/28/2015  14:20      1.1591977764668238
pump_3           8/28/2015  14:30      1.2532659499265204
pump_3           8/28/2015  14:40      1.3145645497290763
pump_3           8/28/2015  14:50      1.2276900442109255
pump_3           8/28/2015  15:00      1.2767227959181775
pump_3           8/28/2015  15:10      1.394365503786583
pump_3           8/28/2015  15:20      1.385677422690142
pump_3           8/28/2015  15:30      1.0989281972096336
pump_3           8/28/2015  15:40      1.1919493274031512
;
pump_4           8/28/2015  08:10      1.8333306732186356
pump_4           8/28/2015  08:20      1.7003589296805153
pump_4           8/28/2015  08:30      2.068043143527258
pump_4           8/28/2015  08:40      1.8142985482911782
pump_4           8/28/2015  08:50      2.0741304498672344
pump_4           8/28/2015  09:00      1.8939348691945699
pump_4           8/28/2015  09:10      1.859438982990112
pump_4           8/28/2015  09:20      2.04923520435369
pump_4           8/28/2015  09:30      1.7563086757501374
pump_4           8/28/2015  09:40      1.965418965249302
pump_4           8/28/2015  09:50      1.9057509996617388
pump_4           8/28/2015  10:00      1.9970696110770483
pump_4           8/28/2015  10:10      1.8348488328402865
pump_4           8/28/2015  10:20      1.6957031789486008
pump_4           8/28/2015  10:30      2.020461247551821
pump_4           8/28/2015  10:40      2.0475116867819745
pump_4           8/28/2015  10:50      1.8957072395655326
pump_4           8/28/2015  11:00      1.8751101144961537