[TITLE]
;;Project Title/Notes

[OPTIONS]
;;Option             Value
FLOW_UNITS           CMS
INFILTRATION         HORTON
FLOW_ROUTING         DYNWAVE
LINK_OFFSETS         DEPTH
MIN_SLOPE            0
ALLOW_PONDING        YES
SKIP_STEADY_STATE    NO

START_DATE           08/28/2015
START_TIME           08:00
REPORT_START_DATE    08/28/2015
REPORT_START_TIME    08:00
END_DATE             08/28/2015
END_TIME             15:50
SWEEP_START          01/01
SWEEP_END            12/31
DRY_DAYS             0
REPORT_STEP          00:01:00
WET_STEP             00:01:00
DRY_STEP             00:01:00
ROUTING_STEP         0:00:05 
RULE_STEP            00:00:00

INERTIAL_DAMPING     PARTIAL
NORMAL_FLOW_LIMITED  BOTH
FORCE_MAIN_EQUATION  H-W
VARIABLE_STEP        0.75
LENGTHENING_STEP     0
MIN_SURFAREA         1.167
MAX_TRIALS           8
HEAD_TOLERANCE       0.0015
SYS_FLOW_TOL         5
LAT_FLOW_TOL         5
MINIMUM_STEP         0.5
THREADS              1

[EVAPORATION]
;;Data Source    Parameters
;;-------------- ----------------
CONSTANT         0.0
DRY_ONLY         NO

[RAINGAGES]
;;Name           Format    Interval SCF      Source    
;;-------------- --------- ------ ------ ----------
RG1              INTENSITY 0:01     1.0      TIMESERIES Oneyear-2h      
RG2              INTENSITY 0:01     1.0      TIMESERIES Oneyear-2h      
RG3              INTENSITY 0:01     1.0      TIMESERIES Oneyear-2h      
RG4              INTENSITY 0:01     1.0      TIMESERIES Oneyear-2h      

[SUBCATCHMENTS]
;;Name           Rain Gage        Outlet           Area     %Imperv  Width    %Slope   CurbLen  SnowPack        
;;-------------- ---------------- ---------------- -------- -------- -------- -------- -------- ----------------
SC01             RG4              J16              33       100      2400     0.8      0.0                      
SC02             RG3              J13              22.75    100      1500     0.8      0                        
SC03             RG1              J10              18       100      2000     0.5      0                        
SC04             RG3              J5               6.9      100      200      0.7      0                        
SC05             RG4              J1               15.6     100      1000     0.5      0                        
SC06             RG2              J8               32.55    100      985      0.5      0                        
SC07             RG3              CSO7             4.75     100      360      0.51     0                        
SC08             RG1              CSO8             28       100      1950     0.45     0                        
SC09             RG2              CSO9             6.9      100      650      0.4      0                        
SC010            RG4              CSO10            11.75    100      650      0.5      0                        

[SUBAREAS]
;;Subcatchment   N-Imperv   N-Perv     S-Imperv   S-Perv     PctZero    RouteTo    PctRouted 
;;-------------- ---------- ---------- ---------- ---------- ---------- ---------- ----------
SC01             0.009      0.10       0.05       0.05       0.0        OUTLET    
SC02             0.009      0.1        0.05       0.05       0          OUTLET    
SC03             0.007      0.1        0.05       0.05       0          OUTLET    
SC04             0.009      0.1        0.05       0.05       0          OUTLET    
SC05             0.007      0.1        0.05       0.05       0          OUTLET    
SC06             0.01       0.1        0.05       0.05       0          OUTLET    
SC07             0.02       0.1        0.05       0.05       0          OUTLET    
SC08             0.01       0.1        0.05       0.05       0          OUTLET    
SC09             0.016      0.1        0.05       0.05       0          OUTLET    
SC010            0.008      0.1        0.05       0.05       0          OUTLET    

[INFILTRATION]
;;Subcatchment   MaxRate    MinRate    Decay      DryTime    MaxInfil  
;;-------------- ---------- ---------- ---------- ---------- ----------
SC01             3.0        0.5        4          7          0         
SC02             3.0        0.5        4          7          0         
SC03             3.0        0.5        4          7          0         
SC04             3.0        0.5        4          7          0         
SC05             3.0        0.5        4          7          0         
SC06             3.0        0.5        4          7          0         
SC07             3.0        0.5        4          7          0         
SC08             3.0        0.5        4          7          0         
SC09             3.0        0.5        4          7          0         
SC010            3.0        0.5        4          7          0         

[JUNCTIONS]
;;Name           Elevation  MaxDepth   InitDepth  SurDepth   Aponded   
;;-------------- ---------- ---------- ---------- ---------- ----------
J1               34.000000  2          0.000000   05.000000  0.000000  
J3               18.000000  2          0.000000   0.000000   0.000000  
CSO7             34.00000   1.2        0.000000   0.000000   0.000     
J5               32.00000   2.000000   0.000000   0.000000   0.000000  
CSO9             40.000000  2          0.000000   0.000000   0.000000  
J8               36.000000  3.000000   0.000000   0.000000   0.000000  
CSO8             32.000000  2          0.000000   0.00000    0.00000   
J10              29.000000  2.000000   0.000000   0.000000   0.000000  
J13              29.000000  2.000000   0.000000   0.000000   0.000000  
J15              15.000000  3.000000   0.000000   0.000000   0.000000  
J16              30.000000  2.000000   0.000000   0.000000   0.000000  
CSO10            30.000000  1.00000    0.000000   0.000000   0.000000  
J12              26.000000  2.000000   0.000000   0.000000   0.000000  
J4               33         2.0        0.00000    0.00000    0.00000   
J6               25         2          0.0000     0.0000     0.0000    
J2               25         2          0.00000    0.00000    0.00000   
J19              8          2          0.0000     0.0000     0.0000    
J9               29         2          0.0000     0.0000     0.0000    
J14              20         2          0.0000     0.0000     0.0000    
J17              20         2          0.0000     0.0000     0.0000    
J7               39         2          0.00000    0.00000    0.00000   
J11              31         2          0.0000     0.0000     0.0000    
J18              29         2          0.0000     0.0000     0.0000    

[OUTFALLS]
;;Name           Elevation  Type       Stage Data       Gated    Route To        
;;-------------- ---------- ---------- ---------------- -------- ----------------
Out_to_WWTP      6          FREE                        NO                       

[STORAGE]
;;Name           Elev.    MaxDepth   InitDepth  Shape      Curve Name/Params            N/A      Fevap    Psi      Ksat     IMD     
;;-------------- -------- ---------- ----------- ---------- ---------------------------- -------- --------          -------- --------
T5               27.000000 5.000000   0.000000   TABULAR    Tank5                        0.000000 0.000000
T4               27.000000 5.000000   0.000000   TABULAR    Tank4                        0.000000 0.000000
T6               31.000000 5.000000   0.000000   TABULAR    Tank6                        0        0       
T3               22.000000 5.000000   0.000000   TABULAR    Tank3                        0.000000 0.000000
T2               21.000000 5.000000   0.000000   TABULAR    Tank2                        0.000000 0.000000
T1               10.000000 5.000000   0.000000   TABULAR    Tank1                        0.000000 0.000000

[CONDUITS]
;;Name           From Node        To Node          Length     Roughness  InOffset   OutOffset  InitFlow   MaxFlow   
;;-------------- ---------------- ---------------- ---------- ---------- ---------- ---------- ---------- ----------
C1               J2               J3               400        0.013      0.00000    0.00000    0.00000    0         
C6               J4               J5               400        0.01       0.00000    0.00000    0.00000    0         
C2               J6               J3               400        0.012      0.00000    0.00000    0.00000    0         
C9               J7               J8               500        0.013      0.00000    0.00000    0.00000    0         
C16              J11              J10              500        0.012      0.0000     0.0000     0.00000    0         
C3               J14              J3               200        0.012      0.000      0.000      0.00000    0         
C19              J17              J15              400        0.012      0.00000    0.00000    0.00000    0         
C11              J3               J15              200        0.012      0.0000     0.0000     0.00000    0         
C20              J16              J15              400        0.012      0.0000     0.0000     0.00000    0         
C22              J18              J15              500        0.013      0.0000     0.0000     0.00000    0         
C12              J9               J12              500        0.012      0.00000    0.00000    0.00000    0         
C17              J10              J12              200        0.012      0.0000     0.0000     0.00000    0         
C10              J8               T6               310.5      0.012      0.00000    0.00000    0.00000    0         
C13              J12              T3               375        0.012      0          0          0.00000    0         
C18              J13              T2               257        0.013      0.0000     0.0000     0.00000    0         
C23              J15              T1               305        0.013      0.0000     0.0000     0.00000    0         
C4               J1               T5               278        0.012      0.0000     0.0000     0.00000    0         
C7               J5               T4               204        0.012      0.00000    0.00000    0.00000    0         
C14              J19              Out_to_WWTP      200        0.011      0.0000     0.0000     0.0000     0         
C5               CSO7             J4               100        0.014      0.0000     0.0000     0.0000     0         
C8               CSO9             J7               100        0.0185     0.0000     0.0000     0.00000    0         
C15              CSO8             J11              100        0.012      0.0000     0.0000     0.0000     0         
C21              CSO10            J18              100        0.02       0.00000    0.00000    0.00000    0         

[ORIFICES]
;;Name           From Node        To Node          Type         Offset     Qcoeff     Gated    CloseTime 
;;-------------- ---------------- ---------------- ------------ ---------- ---------- -------- ----------
V4               T4               J6               SIDE         0.00000    1          NO       0         
V5               T5               J2               SIDE         0.0000     1          NO       0         
V1               T1               J19              SIDE         0.00000    1          NO       0         
V6               T6               J9               SIDE         0.0000     1          NO       0         
V3               T3               J14              SIDE         0.0000     1          NO       0         
V2               T2               J17              SIDE         0.0000     1          NO       0         

[XSECTIONS]
;;Link           Shape        Geom1            Geom2      Geom3      Geom4      Barrels    Culvert   
;;-------------- ------------ ---------------- ---------- ---------- ---------- ---------- ----------
C1               CIRCULAR     1                0          0          0          1                    
C6               CIRCULAR     0.3              0          0          0          1                    
C2               CIRCULAR     0.6              0          0          0          1                    
C9               CIRCULAR     0.5              0          0          0          1                    
C16              CIRCULAR     2                0          0          0          1                    
C3               CIRCULAR     1                0          0          0          1                    
C19              CIRCULAR     1                0          0          0          1                    
C11              CIRCULAR     2                0          0          0          1                    
C20              CIRCULAR     2                0          0          0          1                    
C22              CIRCULAR     0.8              0          0          0          1                    
C12              CIRCULAR     2                0          0          0          1                    
C17              CIRCULAR     2                0          0          0          1                    
C10              CIRCULAR     1.5              0          0          0          1                    
C13              CIRCULAR     2                0          0          0          1                    
C18              CIRCULAR     2                0          0          0          1                    
C23              CIRCULAR     1.5              0          0          0          1                    
C4               CIRCULAR     1                0          0          0          1                    
C7               CIRCULAR     1                0          0          0          1                    
C14              CIRCULAR     2                0          0          0          1                    
C5               CIRCULAR     0.2555           0          0          0          1                    
C8               CIRCULAR     0.318            0          0          0          1                    
C15              CIRCULAR     0.453            0          0          0          1                    
C21              CIRCULAR     0.44             0          0          0          1                    
V4               RECT_CLOSED  0.0264           0.3048     0          0
V5               RECT_CLOSED  0.013            0.3048     0          0
V1               RECT_CLOSED  0.09             0.3048     0          0
V6               RECT_CLOSED  0.0581           0.3048     0          0
V3               RECT_CLOSED  0.063            0.3048     0          0
V2               RECT_CLOSED  0.0465           0.3048     0          0

[LOSSES]
;;Link           Kentry     Kexit      Kavg       Flap Gate  Seepage   
;;-------------- ---------- ---------- ---------- ---------- ----------
C1               0.00000    0.00000    0.00000    NO         0.00000   
C6               0.00000    0.00000    0.00000    NO         0.00000   
C2               0.00000    0.00000    0.00000    NO         0.00000   
C9               0.00000    0.00000    0.00000    NO         0.00000   
C16              0.00000    0.00000    0.00000    NO         0         
C3               0.00000    0.00000    0.00000    NO         0         
C19              0.00000    0.00000    0.00000    NO         0.00000   
C11              0.00000    0.00000    0.00000    NO         0.00000   
C20              0.00000    0.00000    0.00000    NO         0.0000    
C22              0.00000    0.00000    0.00000    NO         0.0000    
C12              0.00000    0.00000    0.00000    NO         0.00000   
C17              0.00000    0.00000    0.00000    NO         0.0000    
C10              0.00000    0.00000    0.00000    NO         0.00000   
C13              0.00000    0.00000    0.00000    NO         0         
C18              0.00000    0.00000    0.00000    NO         0.0000    
C23              0.00000    0.00000    0.00000    NO         0.0000    
C4               0.00000    0.00000    0.00000    NO         0.00000   
C7               0.00000    0.00000    0.00000    NO         0.00000   
C14              0.0000     0.0000     0.0000     NO         0.0000    
C5               0.00000    0.00000    0.00000    NO         0.00000   
C8               0.00000    0.00000    0.00000    NO         0.00000   
C15              0.0000     0.0000     0.0000     NO         0.0000    
C21              0.00000    0.00000    0.00000    NO         0.00000   

[CONTROLS]
RULE R0
IF SIMULATION TIME > 0
THEN ORIFICE V1 SETTING = TIMESERIES pump_0

RULE R1
IF SIMULATION TIME > 0
THEN ORIFICE V2 SETTING = TIMESERIES pump_1

RULE R2
IF SIMULATION TIME > 0
THEN ORIFICE V3 SETTING = TIMESERIES pump_2

RULE R3
IF SIMULATION TIME > 0
THEN ORIFICE V4 SETTING = TIMESERIES pump_3

RULE R4
IF SIMULATION TIME > 0
THEN ORIFICE V5 SETTING = TIMESERIES pump_4

RULE R5
IF SIMULATION TIME > 0
THEN ORIFICE V6 SETTING = TIMESERIES pump_5



[DWF]
;;Node           Constituent      Baseline   Patterns  
;;-------------- ---------------- ---------- ----------
J1               FLOW             0.01269    "" "DWF"
CSO7             FLOW             0.00656    "" "DWF"
J5               FLOW             0.00288    "" "DWF"
CSO9             FLOW             0.00443    "" "DWF"
J8               FLOW             0.02126    "" "DWF"
CSO8             FLOW             0.00518    "DWFCommercial0"
J10              FLOW             0.00871    "" "DWF"
J13              FLOW             0.01056    "" "DWF"
J16              FLOW             0.01251    "" "DWF"
CSO10            FLOW             0.00314    "" "DWF"

[CURVES]
;;Name           Type       X-Value    Y-Value   
;;-------------- ---------- ---------- ----------
Tank1            Storage    0          140       
Tank1                       5          140       
;
Tank2            Storage    0          200       
Tank2                       5          200       
;
Tank3            Storage    0          520       
Tank3                       5          520       
;
Tank4            Storage    0          100       
Tank4                       5          100       
;
Tank5            Storage    0          100       
Tank5                       5          100       
;
Tank6            Storage    0          120       
Tank6                       5          120       

[TIMESERIES]
;;Name           Date       Time       Value     
;;-------------- ---------- ---------- ----------
pump_0           8/28/2015  08:10      2.1063588791474968
pump_0           8/28/2015  08:20      1.8605237927041727
pump_0           8/28/2015  08:30      1.87006318876869
pump_0           8/28/2015  08:40      1.9358440618354291
pump_0           8/28/2015  08:50      1.8370320351881189
pump_0           8/28/2015  09:00      1.8813092486369238
pump_0           8/28/2015  09:10      2.0826219174534764
pump_0           8/28/2015  09:20      2.01693126359638
pump_0           8/28/2015  09:30      2.0362425877421995
pump_0           8/28/2015  09:40      1.9042161025525204
pump_0           8/28/2015  09:50      1.7854247038818256
pump_0           8/28/2015  10:00      1.8855635214948052
pump_0           8/28/2015  10:10      1.755836182687316
pump_0           8/28/2015  10:20      1.9167433696466083
pump_0           8/28/2015  10:30      1.8992696147396195
pump_0           8/28/2015  10:40      1.6799166006439734
pump_0           8/28/2015  10:50      1.9914743893488143
pump_0           8/28/2015  11:00      1.974278161931191
pump_0           8/28/2015  11:10      1.8413883516667424
pump_0           8/28/2015  11:20      1.9333817918961338
pump_0           8/28/2015  11:30      1.9153842863465749
pump_0           8/28/2015  11:40      1.917296521146854
pump_0           8/28/2015  11:50      1.8277264353922447
pump_0           8/28/2015  12:00      1.9483889481897567
pump_0           8/28/2015  12:10      1.7815646948377515
pump_0           8/28/2015  12:20      1.8137074980572137
pump_0           8/28/2015  12:30      1.8296531986958025
pump_0           8/28/2015  12:40      1.8991238954336738
pump_0           8/28/2015  12:50      1.8654439067154769
pump_0           8/28/2015  13:00      1.789028692866115
pump_0           8/28/2015  13:10      1.784971510546467
pump_0           8/28/2015  13:20      1.9727504890545662
pump_0           8/28/2015  13:30      1.9536671299662614
pump_0           8/28/2015  13:40      2.2398115656502426
pump_0           8/28/2015  13:50      2.0021258432721796
pump_0           8/28/2015  14:00      1.8235495805808797
pump_0           8/28/2015  14:10      1.8495955419234456
pump_0           8/28/2015  14:20      1.9090981719146618
pump_0           8/28/2015  14:30      1.9031850824820489
pump_0           8/28/2015  14:40      1.9861357057733775
pump_0           8/28/2015  14:50      1.941363173488858
pump_0           8/28/2015  15:00      1.933116369309336
pump_0           8/28/2015  15:10      1.7701969448157242
pump_0           8/28/2015  15:20      2.003633647330285
pump_0           8/28/2015  15:30      2.104662065666888
pump_0           8/28/2015  15:40      1.8195130601661367
;
pump_1           8/28/2015  08:10      1.3429588791474967
pump_1           8/28/2015  08:20      1.0971237927041728
pump_1           8/28/2015  08:30      0.9775631887686901
pump_1           8/28/2015  08:40      1.043344061835429
pump_1           8/28/2015  08:50      0.9445320351881188
pump_1           8/28/2015  09:00      0.9888092486369239
pump_1           8/28/2015  09:10      1.190121917453476
pump_1           8/28/2015  09:20      1.1244312635963798
pump_1           8/28/2015  09:30      1.1437425877421994
pump_1           8/28/2015  09:40      1.0117161025525203
pump_1           8/28/2015  09:50      0.8929247038818257
pump_1           8/28/2015  10:00      0.9930635214948053
pump_1           8/28/2015  10:10      0.9924361826873159
pump_1           8/28/2015  10:20      1.1533433696466082
pump_1           8/28/2015  10:30      1.1358696147396194
pump_1           8/28/2015  10:40      0.9165166006439734
pump_1           8/28/2015  10:50      1.2280743893488142
pump_1           8/28/2015  11:00      1.210878161931191
pump_1           8/28/2015  11:10      1.0779883516667423
pump_1           8/28/2015  11:20      1.1699817918961337
pump_1           8/28/2015  11:30      1.151984286346575
pump_1           8/28/2015  11:40      1.153896521146854
pump_1           8/28/2015  11:50      1.0643264353922448
pump_1           8/28/2015  12:00      1.1849889481897566
pump_1           8/28/2015  12:10      1.0181646948377514
pump_1           8/28/2015  12:20      1.0503074980572138
pump_1           8/28/2015  12:30      1.0662531986958024
pump_1           8/28/2015  12:40      1.1357238954336737
pump_1           8/28/2015  12:50      1.1020439067154768
pump_1           8/28/2015  13:00      1.025628692866115
pump_1           8/28/2015  13:10      1.021571510546467
pump_1           8/28/2015  13:20      1.209350489054566
pump_1           8/28/2015  13:30      1.1902671299662613
pump_1           8/28/2015  13:40      1.4764115656502426
pump_1           8/28/2015  13:50      1.2387258432721793
pump_1           8/28/2015  14:00      1.0601495805808796
pump_1           8/28/2015  14:10      1.0861955419234455
pump_1           8/28/2015  14:20      1.1456981719146617
pump_1           8/28/2015  14:30      1.1397850824820488
pump_1           8/28/2015  14:40      1.2227357057733774
pump_1           8/28/2015  14:50      1.1779631734888578
pump_1           8/28/2015  15:00      1.169716369309336
pump_1           8/28/2015  15:10      1.0067969448157241
pump_1           8/28/2015  15:20      1.2402336473302848
pump_1           8/28/2015  15:30      1.3412620656668879
pump_1           8/28/2015  15:40      1.0561130601661366
;
pump_2           8/28/2015  08:10      1.7571588791474968
pump_2           8/28/2015  08:20      1.511323792704173
pump_2           8/28/2015  08:30      1.52086318876869
pump_2           8/28/2015  08:40      1.5866440618354292
pump_2           8/28/2015  08:50      1.4878320351881187
pump_2           8/28/2015  09:00      1.5321092486369239
pump_2           8/28/2015  09:10      1.7334219174534762
pump_2           8/28/2015  09:20      1.66773126359638
pump_2           8/28/2015  09:30      1.6870425877421995
pump_2           8/28/2015  09:40      1.5550161025525204
pump_2           8/28/2015  09:50      1.4362247038818257
pump_2           8/28/2015  10:00      1.5363635214948053
pump_2           8/28/2015  10:10      1.071736182687316
pump_2           8/28/2015  10:20      1.2326433696466084
pump_2           8/28/2015  10:30      1.5500696147396196
pump_2           8/28/2015  10:40      0.9958166006439735
pump_2           8/28/2015  10:50      1.3073743893488143
pump_2           8/28/2015  11:00      1.2901781619311912
pump_2           8/28/2015  11:10      1.1572883516667425
pump_2           8/28/2015  11:20      1.2492817918961339
pump_2           8/28/2015  11:30      1.231284286346575
pump_2           8/28/2015  11:40      1.233196521146854
pump_2           8/28/2015  11:50      1.1436264353922447
pump_2           8/28/2015  12:00      1.2642889481897568
pump_2           8/28/2015  12:10      1.0974646948377516
pump_2           8/28/2015  12:20      1.1296074980572137
pump_2           8/28/2015  12:30      1.1455531986958023
pump_2           8/28/2015  12:40      1.2150238954336738
pump_2           8/28/2015  12:50      1.181343906715477
pump_2           8/28/2015  13:00      1.104928692866115
pump_2           8/28/2015  13:10      1.100871510546467
pump_2           8/28/2015  13:20      1.2886504890545663
pump_2           8/28/2015  13:30      1.2695671299662614
pump_2           8/28/2015  13:40      1.5557115656502427
pump_2           8/28/2015  13:50      1.3180258432721794
pump_2           8/28/2015  14:00      1.1394495805808798
pump_2           8/28/2015  14:10      1.1654955419234456
pump_2           8/28/2015  14:20      1.2249981719146619
pump_2           8/28/2015  14:30      1.219085082482049
pump_2           8/28/2015  14:40      1.3020357057733773
pump_2           8/28/2015  14:50      1.2572631734888577
pump_2           8/28/2015  15:00      1.249016369309336
pump_2           8/28/2015  15:10      1.0860969448157243
pump_2           8/28/2015  15:20      1.319533647330285
pump_2           8/28/2015  15:30      1.420562065666888
pump_2           8/28/2015  15:40      1.1354130601661365
;
pump_3           8/28/2015  08:10      1.2957588791474968
pump_3           8/28/2015  08:20      1.0499237927041727
pump_3           8/28/2015  08:30      1.05946318876869
pump_3           8/28/2015  08:40      1.1252440618354291
pump_3           8/28/2015  08:50      1.0264320351881189
pump_3           8/28/2015  09:00      1.0707092486369238
pump_3           8/28/2015  09:10      1.2720219174534761
pump_3           8/28/2015  09:20      1.2063312635963799
pump_3           8/28/2015  09:30      1.2256425877421995
pump_3           8/28/2015  09:40      1.0936161025525204
pump_3           8/28/2015  09:50      0.9748247038818256
pump_3           8/28/2015  10:00      1.0749635214948052
pump_3           8/28/2015  10:10      0.9452361826873159
pump_3           8/28/2015  10:20      1.1061433696466083
pump_3           8/28/2015  10:30      1.0886696147396195
pump_3           8/28/2015  10:40      1.0322166006439735
pump_3           8/28/2015  10:50      1.3437743893488143
pump_3           8/28/2015  11:00      1.3265781619311912
pump_3           8/28/2015  11:10      1.1936883516667425
pump_3           8/28/2015  11:20      1.2856817918961339
pump_3           8/28/2015  11:30      1.267684286346575
pump_3           8/28/2015  11:40      1.269596521146854
pump_3           8/28/2015  11:50      1.1800264353922447
pump_3           8/28/2015  12:00      1.3006889481897568
pump_3           8/28/2015  12:10      1.1338646948377515
pump_3           8/28/2015  12:20      1.1660074980572137
pump_3           8/28/2015  12:30      1.1819531986958023
pump_3           8/28/2015  12:40      1.2514238954336738
pump_3           8/28/2015  12:50      1.217743906715477
pump_3           8/28/2015  13:00      1.141328692866115
pump_3           8/28/2015  13:10      1.137271510546467
pump_3           8/28/2015  13:20      1.3250504890545662
pump_3           8/28/2015  13:30      1.3059671299662614
pump_3           8/28/2015  13:40      1.5921115656502427
pump_3           8/28/2015  13:50      1.3544258432721794
pump_3           8/28/2015  14:00      1.1758495805808797
pump_3           8/28/2015  14:10      1.2018955419234456
pump_3           8/28/2015  14:20      1.2613981719146619
pump_3           8/28/2015  14:30      1.255485082482049
pump_3           8/28/2015  14:40      1.3384357057733773
pump_3           8/28/2015  14:50      1.2936631734888577
pump_3           8/28/2015  15:00      1.285416369309336
pump_3           8/28/2015  15:10      1.1224969448157243
pump_3           8/28/2015  15:20      1.355933647330285
pump_3           8/28/2015  15:30      1.456962065666888
pump_3           8/28/2015  15:40      1.1718130601661365
;
pump_4           8/28/2015  08:10      2.1063588791474968
pump_4           8/28/2015  08:20      1.8605237927041727
pump_4           8/28/2015  08:30      1.87006318876869
pump_4           8/28/2015  08:40      1.9358440618354291
pump_4           8/28/2015  08:50      1.8370320351881189
pump_4           8/28/2015  09:00      1.8813092486369238
pump_4           8/28/2015  09:10      2.0826219174534764
pump_4           8/28/2015  09:20      2.01693126359638
pump_4           8/28/2015  09:30      2.0362425877421995
pump_4           8/28/2015  09:40      1.9042161025525204
pump_4           8/28/2015  09:50      1.7854247038818256
pump_4           8/28/2015  10:00      1.8855635214948052
pump_4           8/28/2015  10:10      1.755836182687316
pump_4           8/28/2015  10:20      1.9167433696466083
pump_4           8/28/2015  10:30      1.8992696147396195
pump_4           8/28/2015  10:40      1.6799166006439734
pump_4           8/28/2015  10:50      1.9914743893488143
pump_4           8/28/2015  11:00      1.974278161931191