[TITLE]
;;Project Title/Notes

[OPTIONS]
;;Option             Value
FLOW_UNITS           CMS
INFILTRATION         HORTON
FLOW_ROUTING         DYNWAVE
LINK_OFFSETS         DEPTH
MIN_SLOPE            0
ALLOW_PONDING        YES
SKIP_STEADY_STATE    NO

START_DATE           08/28/2015
START_TIME           08:00
REPORT_START_DATE    08/28/2015
REPORT_START_TIME    08:00
END_DATE             08/28/2015
END_TIME             15:50
SWEEP_START          01/01
SWEEP_END            12/31
DRY_DAYS             0
REPORT_STEP          00:01:00
WET_STEP             00:01:00
DRY_STEP             00:01:00
ROUTING_STEP         0:00:05 
RULE_STEP            00:00:00

INERTIAL_DAMPING     PARTIAL
NORMAL_FLOW_LIMITED  BOTH
FORCE_MAIN_EQUATION  H-W
VARIABLE_STEP        0.75
LENGTHENING_STEP     0
MIN_SURFAREA         1.167
MAX_TRIALS           8
HEAD_TOLERANCE       0.0015
SYS_FLOW_TOL         5
LAT_FLOW_TOL         5
MINIMUM_STEP         0.5
THREADS              1

[EVAPORATION]
;;Data Source    Parameters
;;-------------- ----------------
CONSTANT         0.0
DRY_ONLY         NO

[RAINGAGES]
;;Name           Format    Interval SCF      Source    
;;-------------- --------- ------ ------ ----------
RG1              INTENSITY 0:01     1.0      TIMESERIES Oneyear-2h      
RG2              INTENSITY 0:01     1.0      TIMESERIES Oneyear-2h      
RG3              INTENSITY 0:01     1.0      TIMESERIES Oneyear-2h      
RG4              INTENSITY 0:01     1.0      TIMESERIES Oneyear-2h      

[SUBCATCHMENTS]
;;Name           Rain Gage        Outlet           Area     %Imperv  Width    %Slope   CurbLen  SnowPack        
;;-------------- ---------------- ---------------- -------- -------- -------- -------- -------- ----------------
SC01             RG4              J16              33       100      2400     0.8      0.0                      
SC02             RG3              J13              22.75    100      1500     0.8      0                        
SC03             RG1              J10              18       100      2000     0.5      0                        
SC04             RG3              J5               6.9      100      200      0.7      0                        
SC05             RG4              J1               15.6     100      1000     0.5      0                        
SC06             RG2              J8               32.55    100      985      0.5      0                        
SC07             RG3              CSO7             4.75     100      360      0.51     0                        
SC08             RG1              CSO8             28       100      1950     0.45     0                        
SC09             RG2              CSO9             6.9      100      650      0.4      0                        
SC010            RG4              CSO10            11.75    100      650      0.5      0                        

[SUBAREAS]
;;Subcatchment   N-Imperv   N-Perv     S-Imperv   S-Perv     PctZero    RouteTo    PctRouted 
;;-------------- ---------- ---------- ---------- ---------- ---------- ---------- ----------
SC01             0.009      0.10       0.05       0.05       0.0        OUTLET    
SC02             0.009      0.1        0.05       0.05       0          OUTLET    
SC03             0.007      0.1        0.05       0.05       0          OUTLET    
SC04             0.009      0.1        0.05       0.05       0          OUTLET    
SC05             0.007      0.1        0.05       0.05       0          OUTLET    
SC06             0.01       0.1        0.05       0.05       0          OUTLET    
SC07             0.02       0.1        0.05       0.05       0          OUTLET    
SC08             0.01       0.1        0.05       0.05       0          OUTLET    
SC09             0.016      0.1        0.05       0.05       0          OUTLET    
SC010            0.008      0.1        0.05       0.05       0          OUTLET    

[INFILTRATION]
;;Subcatchment   MaxRate    MinRate    Decay      DryTime    MaxInfil  
;;-------------- ---------- ---------- ---------- ---------- ----------
SC01             3.0        0.5        4          7          0         
SC02             3.0        0.5        4          7          0         
SC03             3.0        0.5        4          7          0         
SC04             3.0        0.5        4          7          0         
SC05             3.0        0.5        4          7          0         
SC06             3.0        0.5        4          7          0         
SC07             3.0        0.5        4          7          0         
SC08             3.0        0.5        4          7          0         
SC09             3.0        0.5        4          7          0         
SC010            3.0        0.5        4          7          0         

[JUNCTIONS]
;;Name           Elevation  MaxDepth   InitDepth  SurDepth   Aponded   
;;-------------- ---------- ---------- ---------- ---------- ----------
J1               34.000000  2          0.000000   05.000000  0.000000  
J3               18.000000  2          0.000000   0.000000   0.000000  
CSO7             34.00000   1.2        0.000000   0.000000   0.000     
J5               32.00000   2.000000   0.000000   0.000000   0.000000  
CSO9             40.000000  2          0.000000   0.000000   0.000000  
J8               36.000000  3.000000   0.000000   0.000000   0.000000  
CSO8             32.000000  2          0.000000   0.00000    0.00000   
J10              29.000000  2.000000   0.000000   0.000000   0.000000  
J13              29.000000  2.000000   0.000000   0.000000   0.000000  
J15              15.000000  3.000000   0.000000   0.000000   0.000000  
J16              30.000000  2.000000   0.000000   0.000000   0.000000  
CSO10            30.000000  1.00000    0.000000   0.000000   0.000000  
J12              26.000000  2.000000   0.000000   0.000000   0.000000  
J4               33         2.0        0.00000    0.00000    0.00000   
J6               25         2          0.0000     0.0000     0.0000    
J2               25         2          0.00000    0.00000    0.00000   
J19              8          2          0.0000     0.0000     0.0000    
J9               29         2          0.0000     0.0000     0.0000    
J14              20         2          0.0000     0.0000     0.0000    
J17              20         2          0.0000     0.0000     0.0000    
J7               39         2          0.00000    0.00000    0.00000   
J11              31         2          0.0000     0.0000     0.0000    
J18              29         2          0.0000     0.0000     0.0000    

[OUTFALLS]
;;Name           Elevation  Type       Stage Data       Gated    Route To        
;;-------------- ---------- ---------- ---------------- -------- ----------------
Out_to_WWTP      6          FREE                        NO                       

[STORAGE]
;;Name           Elev.    MaxDepth   InitDepth  Shape      Curve Name/Params            N/A      Fevap    Psi      Ksat     IMD     
;;-------------- -------- ---------- ----------- ---------- ---------------------------- -------- --------          -------- --------
T5               27.000000 5.000000   0.000000   TABULAR    Tank5                        0.000000 0.000000
T4               27.000000 5.000000   0.000000   TABULAR    Tank4                        0.000000 0.000000
T6               31.000000 5.000000   0.000000   TABULAR    Tank6                        0        0       
T3               22.000000 5.000000   0.000000   TABULAR    Tank3                        0.000000 0.000000
T2               21.000000 5.000000   0.000000   TABULAR    Tank2                        0.000000 0.000000
T1               10.000000 5.000000   0.000000   TABULAR    Tank1                        0.000000 0.000000

[CONDUITS]
;;Name           From Node        To Node          Length     Roughness  InOffset   OutOffset  InitFlow   MaxFlow   
;;-------------- ---------------- ---------------- ---------- ---------- ---------- ---------- ---------- ----------
C1               J2               J3               400        0.013      0.00000    0.00000    0.00000    0         
C6               J4               J5               400        0.01       0.00000    0.00000    0.00000    0         
C2               J6               J3               400        0.012      0.00000    0.00000    0.00000    0         
C9               J7               J8               500        0.013      0.00000    0.00000    0.00000    0         
C16              J11              J10              500        0.012      0.0000     0.0000     0.00000    0         
C3               J14              J3               200        0.012      0.000      0.000      0.00000    0         
C19              J17              J15              400        0.012      0.00000    0.00000    0.00000    0         
C11              J3               J15              200        0.012      0.0000     0.0000     0.00000    0         
C20              J16              J15              400        0.012      0.0000     0.0000     0.00000    0         
C22              J18              J15              500        0.013      0.0000     0.0000     0.00000    0         
C12              J9               J12              500        0.012      0.00000    0.00000    0.00000    0         
C17              J10              J12              200        0.012      0.0000     0.0000     0.00000    0         
C10              J8               T6               310.5      0.012      0.00000    0.00000    0.00000    0         
C13              J12              T3               375        0.012      0          0          0.00000    0         
C18              J13              T2               257        0.013      0.0000     0.0000     0.00000    0         
C23              J15              T1               305        0.013      0.0000     0.0000     0.00000    0         
C4               J1               T5               278        0.012      0.0000     0.0000     0.00000    0         
C7               J5               T4               204        0.012      0.00000    0.00000    0.00000    0         
C14              J19              Out_to_WWTP      200        0.011      0.0000     0.0000     0.0000     0         
C5               CSO7             J4               100        0.014      0.0000     0.0000     0.0000     0         
C8               CSO9             J7               100        0.0185     0.0000     0.0000     0.00000    0         
C15              CSO8             J11              100        0.012      0.0000     0.0000     0.0000     0         
C21              CSO10            J18              100        0.02       0.00000    0.00000    0.00000    0         

[ORIFICES]
;;Name           From Node        To Node          Type         Offset     Qcoeff     Gated    CloseTime 
;;-------------- ---------------- ---------------- ------------ ---------- ---------- -------- ----------
V4               T4               J6               SIDE         0.00000    1          NO       0         
V5               T5               J2               SIDE         0.0000     1          NO       0         
V1               T1               J19              SIDE         0.00000    1          NO       0         
V6               T6               J9               SIDE         0.0000     1          NO       0         
V3               T3               J14              SIDE         0.0000     1          NO       0         
V2               T2               J17              SIDE         0.0000     1          NO       0         

[XSECTIONS]
;;Link           Shape        Geom1            Geom2      Geom3      Geom4      Barrels    Culvert   
;;-------------- ------------ ---------------- ---------- ---------- ---------- ---------- ----------
C1               CIRCULAR     1                0          0          0          1                    
C6               CIRCULAR     0.3              0          0          0          1                    
C2               CIRCULAR     0.6              0          0          0          1                    
C9               CIRCULAR     0.5              0          0          0          1                    
C16              CIRCULAR     2                0          0          0          1                    
C3               CIRCULAR     1                0          0          0          1                    
C19              CIRCULAR     1                0          0          0          1                    
C11              CIRCULAR     2                0          0          0          1                    
C20              CIRCULAR     2                0          0          0          1                    
C22              CIRCULAR     0.8              0          0          0          1                    
C12              CIRCULAR     2                0          0          0          1                    
C17              CIRCULAR     2                0          0          0          1                    
C10              CIRCULAR     1.5              0          0          0          1                    
C13              CIRCULAR     2                0          0          0          1                    
C18              CIRCULAR     2                0          0          0          1                    
C23              CIRCULAR     1.5              0          0          0          1                    
C4               CIRCULAR     1                0          0          0          1                    
C7               CIRCULAR     1                0          0          0          1                    
C14              CIRCULAR     2                0          0          0          1                    
C5               CIRCULAR     0.2555           0          0          0          1                    
C8               CIRCULAR     0.318            0          0          0          1                    
C15              CIRCULAR     0.453            0          0          0          1                    
C21              CIRCULAR     0.44             0          0          0          1                    
V4               RECT_CLOSED  0.0264           0.3048     0          0
V5               RECT_CLOSED  0.013            0.3048     0          0
V1               RECT_CLOSED  0.09             0.3048     0          0
V6               RECT_CLOSED  0.0581           0.3048     0          0
V3               RECT_CLOSED  0.063            0.3048     0          0
V2               RECT_CLOSED  0.0465           0.3048     0          0

[LOSSES]
;;Link           Kentry     Kexit      Kavg       Flap Gate  Seepage   
;;-------------- ---------- ---------- ---------- ---------- ----------
C1               0.00000    0.00000    0.00000    NO         0.00000   
C6               0.00000    0.00000    0.00000    NO         0.00000   
C2               0.00000    0.00000    0.00000    NO         0.00000   
C9               0.00000    0.00000    0.00000    NO         0.00000   
C16              0.00000    0.00000    0.00000    NO         0         
C3               0.00000    0.00000    0.00000    NO         0         
C19              0.00000    0.00000    0.00000    NO         0.00000   
C11              0.00000    0.00000    0.00000    NO         0.00000   
C20              0.00000    0.00000    0.00000    NO         0.0000    
C22              0.00000    0.00000    0.00000    NO         0.0000    
C12              0.00000    0.00000    0.00000    NO         0.00000   
C17              0.00000    0.00000    0.00000    NO         0.0000    
C10              0.00000    0.00000    0.00000    NO         0.00000   
C13              0.00000    0.00000    0.00000    NO         0         
C18              0.00000    0.00000    0.00000    NO         0.0000    
C23              0.00000    0.00000    0.00000    NO         0.0000    
C4               0.00000    0.00000    0.00000    NO         0.00000   
C7               0.00000    0.00000    0.00000    NO         0.00000   
C14              0.0000     0.0000     0.0000     NO         0.0000    
C5               0.00000    0.00000    0.00000    NO         0.00000   
C8               0.00000    0.00000    0.00000    NO         0.00000   
C15              0.0000     0.0000     0.0000     NO         0.0000    
C21              0.00000    0.00000    0.00000    NO         0.00000   

[CONTROLS]
RULE R0
IF SIMULATION TIME > 0
THEN ORIFICE V1 SETTING = TIMESERIES pump_0

RULE R1
IF SIMULATION TIME > 0
THEN ORIFICE V2 SETTING = TIMESERIES pump_1

RULE R2
IF SIMULATION TIME > 0
THEN ORIFICE V3 SETTING = TIMESERIES pump_2

RULE R3
IF SIMULATION TIME > 0
THEN ORIFICE V4 SETTING = TIMESERIES pump_3

RULE R4
IF SIMULATION TIME > 0
THEN ORIFICE V5 SETTING = TIMESERIES pump_4

RULE R5
IF SIMULATION TIME > 0
THEN ORIFICE V6 SETTING = TIMESERIES pump_5



[DWF]
;;Node           Constituent      Baseline   Patterns  
;;-------------- ---------------- ---------- ----------
J1               FLOW             0.01269    "" "DWF"
CSO7             FLOW             0.00656    "" "DWF"
J5               FLOW             0.00288    "" "DWF"
CSO9             FLOW             0.00443    "" "DWF"
J8               FLOW             0.02126    "" "DWF"
CSO8             FLOW             0.00518    "DWFCommercial0"
J10              FLOW             0.00871    "" "DWF"
J13              FLOW             0.01056    "" "DWF"
J16              FLOW             0.01251    "" "DWF"
CSO10            FLOW             0.00314    "" "DWF"

[CURVES]
;;Name           Type       X-Value    Y-Value   
;;-------------- ---------- ---------- ----------
Tank1            Storage    0          140       
Tank1                       5          140       
;
Tank2            Storage    0          200       
Tank2                       5          200       
;
Tank3            Storage    0          520       
Tank3                       5          520       
;
Tank4            Storage    0          100       
Tank4                       5          100       
;
Tank5            Storage    0          100       
Tank5                       5          100       
;
Tank6            Storage    0          120       
Tank6                       5          120       

[TIMESERIES]
;;Name           Date       Time       Value     
;;-------------- ---------- ---------- ----------
pump_0           8/28/2015  08:10      2.0057251147511064
pump_0           8/28/2015  08:20      2.00183355517231
pump_0           8/28/2015  08:30      1.9004660874247579
pump_0           8/28/2015  08:40      1.9035534672148888
pump_0           8/28/2015  08:50      1.748185438897381
pump_0           8/28/2015  09:00      1.8691241394724223
pump_0           8/28/2015  09:10      1.803228215267191
pump_0           8/28/2015  09:20      1.8234529758485944
pump_0           8/28/2015  09:30      1.762966156410862
pump_0           8/28/2015  09:40      1.7841011272058895
pump_0           8/28/2015  09:50      1.8480549371572847
pump_0           8/28/2015  10:00      1.8606653997712734
pump_0           8/28/2015  10:10      1.9078689456350726
pump_0           8/28/2015  10:20      1.9484151898792395
pump_0           8/28/2015  10:30      1.8277236915750494
pump_0           8/28/2015  10:40      1.726665050643847
pump_0           8/28/2015  10:50      1.9913587251039995
pump_0           8/28/2015  11:00      1.9542301226474899
pump_0           8/28/2015  11:10      1.6532010113137279
pump_0           8/28/2015  11:20      1.898321222015519
pump_0           8/28/2015  11:30      1.9649487234064842
pump_0           8/28/2015  11:40      1.83359647231118
pump_0           8/28/2015  11:50      1.8136978393458387
pump_0           8/28/2015  12:00      1.7496578245511882
pump_0           8/28/2015  12:10      1.8585557921875293
pump_0           8/28/2015  12:20      1.9053758970558408
pump_0           8/28/2015  12:30      1.845918767703375
pump_0           8/28/2015  12:40      1.9672149894101092
pump_0           8/28/2015  12:50      2.0045818002687685
pump_0           8/28/2015  13:00      1.8494482025810521
pump_0           8/28/2015  13:10      2.1019964400234743
pump_0           8/28/2015  13:20      1.9541322791138485
pump_0           8/28/2015  13:30      1.9043585949468782
pump_0           8/28/2015  13:40      1.8018103290382816
pump_0           8/28/2015  13:50      1.977995482768772
pump_0           8/28/2015  14:00      1.9019094669473786
pump_0           8/28/2015  14:10      1.7509976933178226
pump_0           8/28/2015  14:20      1.777911481696432
pump_0           8/28/2015  14:30      1.9014824919556361
pump_0           8/28/2015  14:40      1.9897468446085869
pump_0           8/28/2015  14:50      1.7579521826150586
pump_0           8/28/2015  15:00      1.991754843097035
pump_0           8/28/2015  15:10      1.8953929049611358
pump_0           8/28/2015  15:20      1.802018526439656
pump_0           8/28/2015  15:30      1.8580456210618546
pump_0           8/28/2015  15:40      1.8597474601228567
;
pump_1           8/28/2015  08:10      1.242325114751106
pump_1           8/28/2015  08:20      1.2384335551723098
pump_1           8/28/2015  08:30      1.1370660874247578
pump_1           8/28/2015  08:40      1.1401534672148887
pump_1           8/28/2015  08:50      0.984785438897381
pump_1           8/28/2015  09:00      1.1057241394724222
pump_1           8/28/2015  09:10      1.039828215267191
pump_1           8/28/2015  09:20      1.0600529758485944
pump_1           8/28/2015  09:30      0.9995661564108621
pump_1           8/28/2015  09:40      1.0207011272058897
pump_1           8/28/2015  09:50      1.0846549371572847
pump_1           8/28/2015  10:00      1.0972653997712734
pump_1           8/28/2015  10:10      1.1444689456350727
pump_1           8/28/2015  10:20      1.1850151898792394
pump_1           8/28/2015  10:30      0.9352236915750495
pump_1           8/28/2015  10:40      0.8341650506438469
pump_1           8/28/2015  10:50      1.2279587251039994
pump_1           8/28/2015  11:00      1.19083012264749
pump_1           8/28/2015  11:10      0.8898010113137279
pump_1           8/28/2015  11:20      1.134921222015519
pump_1           8/28/2015  11:30      1.201548723406484
pump_1           8/28/2015  11:40      1.07019647231118
pump_1           8/28/2015  11:50      1.0502978393458386
pump_1           8/28/2015  12:00      0.9862578245511883
pump_1           8/28/2015  12:10      1.0951557921875292
pump_1           8/28/2015  12:20      1.1419758970558407
pump_1           8/28/2015  12:30      1.082518767703375
pump_1           8/28/2015  12:40      1.2038149894101091
pump_1           8/28/2015  12:50      1.2411818002687682
pump_1           8/28/2015  13:00      1.086048202581052
pump_1           8/28/2015  13:10      1.338596440023474
pump_1           8/28/2015  13:20      1.1907322791138486
pump_1           8/28/2015  13:30      1.1409585949468781
pump_1           8/28/2015  13:40      1.0384103290382816
pump_1           8/28/2015  13:50      1.214595482768772
pump_1           8/28/2015  14:00      1.1385094669473785
pump_1           8/28/2015  14:10      0.9875976933178228
pump_1           8/28/2015  14:20      1.0145114816964322
pump_1           8/28/2015  14:30      1.138082491955636
pump_1           8/28/2015  14:40      1.2263468446085868
pump_1           8/28/2015  14:50      0.9945521826150585
pump_1           8/28/2015  15:00      1.228354843097035
pump_1           8/28/2015  15:10      1.1319929049611357
pump_1           8/28/2015  15:20      1.038618526439656
pump_1           8/28/2015  15:30      1.0946456210618547
pump_1           8/28/2015  15:40      1.0963474601228567
;
pump_2           8/28/2015  08:10      1.6565251147511062
pump_2           8/28/2015  08:20      1.65263355517231
pump_2           8/28/2015  08:30      1.5512660874247577
pump_2           8/28/2015  08:40      1.5543534672148889
pump_2           8/28/2015  08:50      1.398985438897381
pump_2           8/28/2015  09:00      1.1850241394724221
pump_2           8/28/2015  09:10      1.119128215267191
pump_2           8/28/2015  09:20      1.1393529758485943
pump_2           8/28/2015  09:30      1.0788661564108621
pump_2           8/28/2015  09:40      1.1000011272058896
pump_2           8/28/2015  09:50      1.1639549371572848
pump_2           8/28/2015  10:00      1.1765653997712735
pump_2           8/28/2015  10:10      1.2237689456350727
pump_2           8/28/2015  10:20      1.2643151898792395
pump_2           8/28/2015  10:30      1.4785236915750495
pump_2           8/28/2015  10:40      1.3774650506438468
pump_2           8/28/2015  10:50      1.3072587251039995
pump_2           8/28/2015  11:00      1.27013012264749
pump_2           8/28/2015  11:10      0.969101011313728
pump_2           8/28/2015  11:20      1.2142212220155189
pump_2           8/28/2015  11:30      1.2808487234064843
pump_2           8/28/2015  11:40      1.14949647231118
pump_2           8/28/2015  11:50      1.1295978393458388
pump_2           8/28/2015  12:00      1.0655578245511883
pump_2           8/28/2015  12:10      1.1744557921875294
pump_2           8/28/2015  12:20      1.2212758970558408
pump_2           8/28/2015  12:30      1.161818767703375
pump_2           8/28/2015  12:40      1.2831149894101093
pump_2           8/28/2015  12:50      1.3204818002687684
pump_2           8/28/2015  13:00      1.165348202581052
pump_2           8/28/2015  13:10      1.4178964400234741
pump_2           8/28/2015  13:20      1.2700322791138485
pump_2           8/28/2015  13:30      1.2202585949468783
pump_2           8/28/2015  13:40      1.1177103290382817
pump_2           8/28/2015  13:50      1.293895482768772
pump_2           8/28/2015  14:00      1.2178094669473787
pump_2           8/28/2015  14:10      1.0668976933178227
pump_2           8/28/2015  14:20      1.0938114816964322
pump_2           8/28/2015  14:30      1.2173824919556362
pump_2           8/28/2015  14:40      1.3056468446085867
pump_2           8/28/2015  14:50      1.0738521826150584
pump_2           8/28/2015  15:00      1.307654843097035
pump_2           8/28/2015  15:10      1.2112929049611358
pump_2           8/28/2015  15:20      1.117918526439656
pump_2           8/28/2015  15:30      1.1739456210618546
pump_2           8/28/2015  15:40      1.1756474601228568
;
pump_3           8/28/2015  08:10      1.1951251147511062
pump_3           8/28/2015  08:20      1.1912335551723099
pump_3           8/28/2015  08:30      1.0898660874247579
pump_3           8/28/2015  08:40      1.0929534672148888
pump_3           8/28/2015  08:50      0.937585438897381
pump_3           8/28/2015  09:00      1.0585241394724223
pump_3           8/28/2015  09:10      0.992628215267191
pump_3           8/28/2015  09:20      1.0128529758485945
pump_3           8/28/2015  09:30      0.9523661564108621
pump_3           8/28/2015  09:40      0.9735011272058897
pump_3           8/28/2015  09:50      1.0374549371572848
pump_3           8/28/2015  10:00      1.0500653997712734
pump_3           8/28/2015  10:10      1.0972689456350726
pump_3           8/28/2015  10:20      1.1378151898792395
pump_3           8/28/2015  10:30      1.0171236915750494
pump_3           8/28/2015  10:40      0.9160650506438469
pump_3           8/28/2015  10:50      1.3436587251039995
pump_3           8/28/2015  11:00      1.30653012264749
pump_3           8/28/2015  11:10      1.005501011313728
pump_3           8/28/2015  11:20      1.2506212220155188
pump_3           8/28/2015  11:30      1.3172487234064842
pump_3           8/28/2015  11:40      1.18589647231118
pump_3           8/28/2015  11:50      1.1659978393458388
pump_3           8/28/2015  12:00      1.1019578245511883
pump_3           8/28/2015  12:10      1.2108557921875294
pump_3           8/28/2015  12:20      1.2576758970558408
pump_3           8/28/2015  12:30      1.198218767703375
pump_3           8/28/2015  12:40      1.3195149894101093
pump_3           8/28/2015  12:50      1.3568818002687684
pump_3           8/28/2015  13:00      1.201748202581052
pump_3           8/28/2015  13:10      1.4542964400234741
pump_3           8/28/2015  13:20      1.3064322791138485
pump_3           8/28/2015  13:30      1.2566585949468783
pump_3           8/28/2015  13:40      1.1541103290382817
pump_3           8/28/2015  13:50      1.330295482768772
pump_3           8/28/2015  14:00      1.2542094669473787
pump_3           8/28/2015  14:10      1.1032976933178227
pump_3           8/28/2015  14:20      1.1302114816964322
pump_3           8/28/2015  14:30      1.2537824919556362
pump_3           8/28/2015  14:40      1.3420468446085867
pump_3           8/28/2015  14:50      1.1102521826150584
pump_3           8/28/2015  15:00      1.344054843097035
pump_3           8/28/2015  15:10      1.2476929049611358
pump_3           8/28/2015  15:20      1.154318526439656
pump_3           8/28/2015  15:30      1.2103456210618546
pump_3           8/28/2015  15:40      1.2120474601228568
;
pump_4           8/28/2015  08:10      2.0057251147511064
pump_4           8/28/2015  08:20      2.00183355517231
pump_4           8/28/2015  08:30      1.9004660874247579
pump_4           8/28/2015  08:40      1.9035534672148888
pump_4           8/28/2015  08:50      1.748185438897381
pump_4           8/28/2015  09:00      1.8691241394724223
pump_4           8/28/2015  09:10      1.803228215267191
pump_4           8/28/2015  09:20      1.8234529758485944
pump_4           8/28/2015  09:30      1.762966156410862
pump_4           8/28/2015  09:40      1.7841011272058895
pump_4           8/28/2015  09:50      1.8480549371572847
pump_4           8/28/2015  10:00      1.8606653997712734
pump_4           8/28/2015  10:10      1.9078689456350726
pump_4           8/28/2015  10:20      1.9484151898792395
pump_4           8/28/2015  10:30      1.8277236915750494
pump_4           8/28/2015  10:40      1.726665050643847
pump_4           8/28/2015  10:50      1.9913587251039995
pump_4           8/28/2015  11:00      1.9542301226474899