[TITLE]
;;Project Title/Notes

[OPTIONS]
;;Option             Value
FLOW_UNITS           CMS
INFILTRATION         HORTON
FLOW_ROUTING         DYNWAVE
LINK_OFFSETS         DEPTH
MIN_SLOPE            0
ALLOW_PONDING        YES
SKIP_STEADY_STATE    NO

START_DATE           08/28/2015
START_TIME           08:00
REPORT_START_DATE    08/28/2015
REPORT_START_TIME    08:00
END_DATE             08/28/2015
END_TIME             15:50
SWEEP_START          01/01
SWEEP_END            12/31
DRY_DAYS             0
REPORT_STEP          00:01:00
WET_STEP             00:01:00
DRY_STEP             00:01:00
ROUTING_STEP         0:00:05 
RULE_STEP            00:00:00

INERTIAL_DAMPING     PARTIAL
NORMAL_FLOW_LIMITED  BOTH
FORCE_MAIN_EQUATION  H-W
VARIABLE_STEP        0.75
LENGTHENING_STEP     0
MIN_SURFAREA         1.167
MAX_TRIALS           8
HEAD_TOLERANCE       0.0015
SYS_FLOW_TOL         5
LAT_FLOW_TOL         5
MINIMUM_STEP         0.5
THREADS              1

[EVAPORATION]
;;Data Source    Parameters
;;-------------- ----------------
CONSTANT         0.0
DRY_ONLY         NO

[RAINGAGES]
;;Name           Format    Interval SCF      Source    
;;-------------- --------- ------ ------ ----------
RG1              INTENSITY 0:01     1.0      TIMESERIES Oneyear-2h      
RG2              INTENSITY 0:01     1.0      TIMESERIES Oneyear-2h      
RG3              INTENSITY 0:01     1.0      TIMESERIES Oneyear-2h      
RG4              INTENSITY 0:01     1.0      TIMESERIES Oneyear-2h      

[SUBCATCHMENTS]
;;Name           Rain Gage        Outlet           Area     %Imperv  Width    %Slope   CurbLen  SnowPack        
;;-------------- ---------------- ---------------- -------- -------- -------- -------- -------- ----------------
SC01             RG4              J16              33       100      2400     0.8      0.0                      
SC02             RG3              J13              22.75    100      1500     0.8      0                        
SC03             RG1              J10              18       100      2000     0.5      0                        
SC04             RG3              J5               6.9      100      200      0.7      0                        
SC05             RG4              J1               15.6     100      1000     0.5      0                        
SC06             RG2              J8               32.55    100      985      0.5      0                        
SC07             RG3              CSO7             4.75     100      360      0.51     0                        
SC08             RG1              CSO8             28       100      1950     0.45     0                        
SC09             RG2              CSO9             6.9      100      650      0.4      0                        
SC010            RG4              CSO10            11.75    100      650      0.5      0                        

[SUBAREAS]
;;Subcatchment   N-Imperv   N-Perv     S-Imperv   S-Perv     PctZero    RouteTo    PctRouted 
;;-------------- ---------- ---------- ---------- ---------- ---------- ---------- ----------
SC01             0.009      0.10       0.05       0.05       0.0        OUTLET    
SC02             0.009      0.1        0.05       0.05       0          OUTLET    
SC03             0.007      0.1        0.05       0.05       0          OUTLET    
SC04             0.009      0.1        0.05       0.05       0          OUTLET    
SC05             0.007      0.1        0.05       0.05       0          OUTLET    
SC06             0.01       0.1        0.05       0.05       0          OUTLET    
SC07             0.02       0.1        0.05       0.05       0          OUTLET    
SC08             0.01       0.1        0.05       0.05       0          OUTLET    
SC09             0.016      0.1        0.05       0.05       0          OUTLET    
SC010            0.008      0.1        0.05       0.05       0          OUTLET    

[INFILTRATION]
;;Subcatchment   MaxRate    MinRate    Decay      DryTime    MaxInfil  
;;-------------- ---------- ---------- ---------- ---------- ----------
SC01             3.0        0.5        4          7          0         
SC02             3.0        0.5        4          7          0         
SC03             3.0        0.5        4          7          0         
SC04             3.0        0.5        4          7          0         
SC05             3.0        0.5        4          7          0         
SC06             3.0        0.5        4          7          0         
SC07             3.0        0.5        4          7          0         
SC08             3.0        0.5        4          7          0         
SC09             3.0        0.5        4          7          0         
SC010            3.0        0.5        4          7          0         

[JUNCTIONS]
;;Name           Elevation  MaxDepth   InitDepth  SurDepth   Aponded   
;;-------------- ---------- ---------- ---------- ---------- ----------
J1               34.000000  2          0.000000   05.000000  0.000000  
J3               18.000000  2          0.000000   0.000000   0.000000  
CSO7             34.00000   1.2        0.000000   0.000000   0.000     
J5               32.00000   2.000000   0.000000   0.000000   0.000000  
CSO9             40.000000  2          0.000000   0.000000   0.000000  
J8               36.000000  3.000000   0.000000   0.000000   0.000000  
CSO8             32.000000  2          0.000000   0.00000    0.00000   
J10              29.000000  2.000000   0.000000   0.000000   0.000000  
J13              29.000000  2.000000   0.000000   0.000000   0.000000  
J15              15.000000  3.000000   0.000000   0.000000   0.000000  
J16              30.000000  2.000000   0.000000   0.000000   0.000000  
CSO10            30.000000  1.00000    0.000000   0.000000   0.000000  
J12              26.000000  2.000000   0.000000   0.000000   0.000000  
J4               33         2.0        0.00000    0.00000    0.00000   
J6               25         2          0.0000     0.0000     0.0000    
J2               25         2          0.00000    0.00000    0.00000   
J19              8          2          0.0000     0.0000     0.0000    
J9               29         2          0.0000     0.0000     0.0000    
J14              20         2          0.0000     0.0000     0.0000    
J17              20         2          0.0000     0.0000     0.0000    
J7               39         2          0.00000    0.00000    0.00000   
J11              31         2          0.0000     0.0000     0.0000    
J18              29         2          0.0000     0.0000     0.0000    

[OUTFALLS]
;;Name           Elevation  Type       Stage Data       Gated    Route To        
;;-------------- ---------- ---------- ---------------- -------- ----------------
Out_to_WWTP      6          FREE                        NO                       

[STORAGE]
;;Name           Elev.    MaxDepth   InitDepth  Shape      Curve Name/Params            N/A      Fevap    Psi      Ksat     IMD     
;;-------------- -------- ---------- ----------- ---------- ---------------------------- -------- --------          -------- --------
T5               27.000000 5.000000   0.000000   TABULAR    Tank5                        0.000000 0.000000
T4               27.000000 5.000000   0.000000   TABULAR    Tank4                        0.000000 0.000000
T6               31.000000 5.000000   0.000000   TABULAR    Tank6                        0        0       
T3               22.000000 5.000000   0.000000   TABULAR    Tank3                        0.000000 0.000000
T2               21.000000 5.000000   0.000000   TABULAR    Tank2                        0.000000 0.000000
T1               10.000000 5.000000   0.000000   TABULAR    Tank1                        0.000000 0.000000

[CONDUITS]
;;Name           From Node        To Node          Length     Roughness  InOffset   OutOffset  InitFlow   MaxFlow   
;;-------------- ---------------- ---------------- ---------- ---------- ---------- ---------- ---------- ----------
C1               J2               J3               400        0.013      0.00000    0.00000    0.00000    0         
C6               J4               J5               400        0.01       0.00000    0.00000    0.00000    0         
C2               J6               J3               400        0.012      0.00000    0.00000    0.00000    0         
C9               J7               J8               500        0.013      0.00000    0.00000    0.00000    0         
C16              J11              J10              500        0.012      0.0000     0.0000     0.00000    0         
C3               J14              J3               200        0.012      0.000      0.000      0.00000    0         
C19              J17              J15              400        0.012      0.00000    0.00000    0.00000    0         
C11              J3               J15              200        0.012      0.0000     0.0000     0.00000    0         
C20              J16              J15              400        0.012      0.0000     0.0000     0.00000    0         
C22              J18              J15              500        0.013      0.0000     0.0000     0.00000    0         
C12              J9               J12              500        0.012      0.00000    0.00000    0.00000    0         
C17              J10              J12              200        0.012      0.0000     0.0000     0.00000    0         
C10              J8               T6               310.5      0.012      0.00000    0.00000    0.00000    0         
C13              J12              T3               375        0.012      0          0          0.00000    0         
C18              J13              T2               257        0.013      0.0000     0.0000     0.00000    0         
C23              J15              T1               305        0.013      0.0000     0.0000     0.00000    0         
C4               J1               T5               278        0.012      0.0000     0.0000     0.00000    0         
C7               J5               T4               204        0.012      0.00000    0.00000    0.00000    0         
C14              J19              Out_to_WWTP      200        0.011      0.0000     0.0000     0.0000     0         
C5               CSO7             J4               100        0.014      0.0000     0.0000     0.0000     0         
C8               CSO9             J7               100        0.0185     0.0000     0.0000     0.00000    0         
C15              CSO8             J11              100        0.012      0.0000     0.0000     0.0000     0         
C21              CSO10            J18              100        0.02       0.00000    0.00000    0.00000    0         

[ORIFICES]
;;Name           From Node        To Node          Type         Offset     Qcoeff     Gated    CloseTime 
;;-------------- ---------------- ---------------- ------------ ---------- ---------- -------- ----------
V4               T4               J6               SIDE         0.00000    1          NO       0         
V5               T5               J2               SIDE         0.0000     1          NO       0         
V1               T1               J19              SIDE         0.00000    1          NO       0         
V6               T6               J9               SIDE         0.0000     1          NO       0         
V3               T3               J14              SIDE         0.0000     1          NO       0         
V2               T2               J17              SIDE         0.0000     1          NO       0         

[XSECTIONS]
;;Link           Shape        Geom1            Geom2      Geom3      Geom4      Barrels    Culvert   
;;-------------- ------------ ---------------- ---------- ---------- ---------- ---------- ----------
C1               CIRCULAR     1                0          0          0          1                    
C6               CIRCULAR     0.3              0          0          0          1                    
C2               CIRCULAR     0.6              0          0          0          1                    
C9               CIRCULAR     0.5              0          0          0          1                    
C16              CIRCULAR     2                0          0          0          1                    
C3               CIRCULAR     1                0          0          0          1                    
C19              CIRCULAR     1                0          0          0          1                    
C11              CIRCULAR     2                0          0          0          1                    
C20              CIRCULAR     2                0          0          0          1                    
C22              CIRCULAR     0.8              0          0          0          1                    
C12              CIRCULAR     2                0          0          0          1                    
C17              CIRCULAR     2                0          0          0          1                    
C10              CIRCULAR     1.5              0          0          0          1                    
C13              CIRCULAR     2                0          0          0          1                    
C18              CIRCULAR     2                0          0          0          1                    
C23              CIRCULAR     1.5              0          0          0          1                    
C4               CIRCULAR     1                0          0          0          1                    
C7               CIRCULAR     1                0          0          0          1                    
C14              CIRCULAR     2                0          0          0          1                    
C5               CIRCULAR     0.2555           0          0          0          1                    
C8               CIRCULAR     0.318            0          0          0          1                    
C15              CIRCULAR     0.453            0          0          0          1                    
C21              CIRCULAR     0.44             0          0          0          1                    
V4               RECT_CLOSED  0.0264           0.3048     0          0
V5               RECT_CLOSED  0.013            0.3048     0          0
V1               RECT_CLOSED  0.09             0.3048     0          0
V6               RECT_CLOSED  0.0581           0.3048     0          0
V3               RECT_CLOSED  0.063            0.3048     0          0
V2               RECT_CLOSED  0.0465           0.3048     0          0

[LOSSES]
;;Link           Kentry     Kexit      Kavg       Flap Gate  Seepage   
;;-------------- ---------- ---------- ---------- ---------- ----------
C1               0.00000    0.00000    0.00000    NO         0.00000   
C6               0.00000    0.00000    0.00000    NO         0.00000   
C2               0.00000    0.00000    0.00000    NO         0.00000   
C9               0.00000    0.00000    0.00000    NO         0.00000   
C16              0.00000    0.00000    0.00000    NO         0         
C3               0.00000    0.00000    0.00000    NO         0         
C19              0.00000    0.00000    0.00000    NO         0.00000   
C11              0.00000    0.00000    0.00000    NO         0.00000   
C20              0.00000    0.00000    0.00000    NO         0.0000    
C22              0.00000    0.00000    0.00000    NO         0.0000    
C12              0.00000    0.00000    0.00000    NO         0.00000   
C17              0.00000    0.00000    0.00000    NO         0.0000    
C10              0.00000    0.00000    0.00000    NO         0.00000   
C13              0.00000    0.00000    0.00000    NO         0         
C18              0.00000    0.00000    0.00000    NO         0.0000    
C23              0.00000    0.00000    0.00000    NO         0.0000    
C4               0.00000    0.00000    0.00000    NO         0.00000   
C7               0.00000    0.00000    0.00000    NO         0.00000   
C14              0.0000     0.0000     0.0000     NO         0.0000    
C5               0.00000    0.00000    0.00000    NO         0.00000   
C8               0.00000    0.00000    0.00000    NO         0.00000   
C15              0.0000     0.0000     0.0000     NO         0.0000    
C21              0.00000    0.00000    0.00000    NO         0.00000   

[CONTROLS]
RULE R0
IF SIMULATION TIME > 0
THEN ORIFICE V1 SETTING = TIMESERIES pump_0

RULE R1
IF SIMULATION TIME > 0
THEN ORIFICE V2 SETTING = TIMESERIES pump_1

RULE R2
IF SIMULATION TIME > 0
THEN ORIFICE V3 SETTING = TIMESERIES pump_2

RULE R3
IF SIMULATION TIME > 0
THEN ORIFICE V4 SETTING = TIMESERIES pump_3

RULE R4
IF SIMULATION TIME > 0
THEN ORIFICE V5 SETTING = TIMESERIES pump_4

RULE R5
IF SIMULATION TIME > 0
THEN ORIFICE V6 SETTING = TIMESERIES pump_5



[DWF]
;;Node           Constituent      Baseline   Patterns  
;;-------------- ---------------- ---------- ----------
J1               FLOW             0.01269    "" "DWF"
CSO7             FLOW             0.00656    "" "DWF"
J5               FLOW             0.00288    "" "DWF"
CSO9             FLOW             0.00443    "" "DWF"
J8               FLOW             0.02126    "" "DWF"
CSO8             FLOW             0.00518    "DWFCommercial0"
J10              FLOW             0.00871    "" "DWF"
J13              FLOW             0.01056    "" "DWF"
J16              FLOW             0.01251    "" "DWF"
CSO10            FLOW             0.00314    "" "DWF"

[CURVES]
;;Name           Type       X-Value    Y-Value   
;;-------------- ---------- ---------- ----------
Tank1            Storage    0          140       
Tank1                       5          140       
;
Tank2            Storage    0          200       
Tank2                       5          200       
;
Tank3            Storage    0          520       
Tank3                       5          520       
;
Tank4            Storage    0          100       
Tank4                       5          100       
;
Tank5            Storage    0          100       
Tank5                       5          100       
;
Tank6            Storage    0          120       
Tank6                       5          120       

[TIMESERIES]
;;Name           Date       Time       Value     
;;-------------- ---------- ---------- ----------
pump_0           8/28/2015  08:10      0.998330789644676
pump_0           8/28/2015  08:20      1.0237275825588992
pump_0           8/28/2015  08:30      1.206986129437397
pump_0           8/28/2015  08:40      1.0377517419188944
pump_0           8/28/2015  08:50      1.2284781296417426
pump_0           8/28/2015  09:00      1.3390814766243224
pump_0           8/28/2015  09:10      1.2087680249677424
pump_0           8/28/2015  09:20      1.2156490402167295
pump_0           8/28/2015  09:30      1.2944232145979861
pump_0           8/28/2015  09:40      1.1096878905322565
pump_0           8/28/2015  09:50      1.0727592085799338
pump_0           8/28/2015  10:00      1.1201144288414207
pump_0           8/28/2015  10:10      1.247140242162939
pump_0           8/28/2015  10:20      1.2547313286888397
pump_0           8/28/2015  10:30      1.2611031438734068
pump_0           8/28/2015  10:40      1.1454170455517168
pump_0           8/28/2015  10:50      1.2312577702137677
pump_0           8/28/2015  11:00      1.0795662770612524
pump_0           8/28/2015  11:10      1.0437326370658875
pump_0           8/28/2015  11:20      1.268006482986403
pump_0           8/28/2015  11:30      1.2390964489212835
pump_0           8/28/2015  11:40      1.16757453461185
pump_0           8/28/2015  11:50      1.3066866305347526
pump_0           8/28/2015  12:00      1.1621853424906798
pump_0           8/28/2015  12:10      1.151505485876534
pump_0           8/28/2015  12:20      1.1469368072718984
pump_0           8/28/2015  12:30      1.3466804111068278
pump_0           8/28/2015  12:40      1.0959919481818912
pump_0           8/28/2015  12:50      1.1834022421511108
pump_0           8/28/2015  13:00      1.195482500346297
pump_0           8/28/2015  13:10      1.1726629027757283
pump_0           8/28/2015  13:20      1.2694348513004565
pump_0           8/28/2015  13:30      1.101312165633448
pump_0           8/28/2015  13:40      1.2018479770751413
pump_0           8/28/2015  13:50      1.248725008936293
pump_0           8/28/2015  14:00      1.2298589041144714
pump_0           8/28/2015  14:10      1.208996190457536
pump_0           8/28/2015  14:20      1.2527781523762551
pump_0           8/28/2015  14:30      1.2072896452140638
pump_0           8/28/2015  14:40      1.1161014725668643
pump_0           8/28/2015  14:50      1.267622090938101
pump_0           8/28/2015  15:00      1.2926496955156357
pump_0           8/28/2015  15:10      1.1808672652376773
pump_0           8/28/2015  15:20      1.2393832198349255
pump_0           8/28/2015  15:30      1.1848620948791169
pump_0           8/28/2015  15:40      1.158494586109587
;
pump_1           8/28/2015  08:10      0.23493078964467604
pump_1           8/28/2015  08:20      0.26032758255889915
pump_1           8/28/2015  08:30      0.3144861294373969
pump_1           8/28/2015  08:40      0.1452517419188944
pump_1           8/28/2015  08:50      0.3359781296417426
pump_1           8/28/2015  09:00      0.44658147662432235
pump_1           8/28/2015  09:10      0.31626802496774237
pump_1           8/28/2015  09:20      0.32314904021672936
pump_1           8/28/2015  09:30      0.4019232145979861
pump_1           8/28/2015  09:40      0.21718789053225657
pump_1           8/28/2015  09:50      0.18025920857993377
pump_1           8/28/2015  10:00      0.2276144288414206
pump_1           8/28/2015  10:10      0.48374024216293887
pump_1           8/28/2015  10:20      0.4913313286888399
pump_1           8/28/2015  10:30      0.49770314387340675
pump_1           8/28/2015  10:40      0.38201704555171667
pump_1           8/28/2015  10:50      0.46785777021376773
pump_1           8/28/2015  11:00      0.3161662770612525
pump_1           8/28/2015  11:10      0.28033263706588746
pump_1           8/28/2015  11:20      0.504606482986403
pump_1           8/28/2015  11:30      0.47569644892128343
pump_1           8/28/2015  11:40      0.40417453461185004
pump_1           8/28/2015  11:50      0.5432866305347526
pump_1           8/28/2015  12:00      0.39878534249067993
pump_1           8/28/2015  12:10      0.38810548587653404
pump_1           8/28/2015  12:20      0.38353680727189843
pump_1           8/28/2015  12:30      0.5832804111068277
pump_1           8/28/2015  12:40      0.3325919481818911
pump_1           8/28/2015  12:50      0.4200022421511108
pump_1           8/28/2015  13:00      0.43208250034629697
pump_1           8/28/2015  13:10      0.4092629027757282
pump_1           8/28/2015  13:20      0.5060348513004566
pump_1           8/28/2015  13:30      0.3379121656334479
pump_1           8/28/2015  13:40      0.43844797707514127
pump_1           8/28/2015  13:50      0.48532500893629305
pump_1           8/28/2015  14:00      0.46645890411447144
pump_1           8/28/2015  14:10      0.44559619045753607
pump_1           8/28/2015  14:20      0.48937815237625515
pump_1           8/28/2015  14:30      0.4438896452140637
pump_1           8/28/2015  14:40      0.3527014725668644
pump_1           8/28/2015  14:50      0.504222090938101
pump_1           8/28/2015  15:00      0.5292496955156356
pump_1           8/28/2015  15:10      0.4174672652376772
pump_1           8/28/2015  15:20      0.4759832198349254
pump_1           8/28/2015  15:30      0.4214620948791169
pump_1           8/28/2015  15:40      0.395094586109587
;
pump_2           8/28/2015  08:10      0.6491307896446761
pump_2           8/28/2015  08:20      0.6745275825588992
pump_2           8/28/2015  08:30      0.857786129437397
pump_2           8/28/2015  08:40      0.6885517419188945
pump_2           8/28/2015  08:50      0.8792781296417427
pump_2           8/28/2015  09:00      0.9898814766243225
pump_2           8/28/2015  09:10      0.8595680249677424
pump_2           8/28/2015  09:20      0.8664490402167294
pump_2           8/28/2015  09:30      0.9452232145979862
pump_2           8/28/2015  09:40      0.7604878905322566
pump_2           8/28/2015  09:50      0.7235592085799338
pump_2           8/28/2015  10:00      0.7709144288414207
pump_2           8/28/2015  10:10      0.5630402421629389
pump_2           8/28/2015  10:20      0.5706313286888398
pump_2           8/28/2015  10:30      0.5770031438734068
pump_2           8/28/2015  10:40      0.46131704555171665
pump_2           8/28/2015  10:50      0.5471577702137678
pump_2           8/28/2015  11:00      0.39546627706125254
pump_2           8/28/2015  11:10      0.35963263706588744
pump_2           8/28/2015  11:20      0.583906482986403
pump_2           8/28/2015  11:30      0.5549964489212834
pump_2           8/28/2015  11:40      0.48347453461185
pump_2           8/28/2015  11:50      0.6225866305347526
pump_2           8/28/2015  12:00      0.4780853424906799
pump_2           8/28/2015  12:10      0.467405485876534
pump_2           8/28/2015  12:20      0.46283680727189846
pump_2           8/28/2015  12:30      0.6625804111068277
pump_2           8/28/2015  12:40      0.4118919481818911
pump_2           8/28/2015  12:50      0.49930224215111085
pump_2           8/28/2015  13:00      0.511382500346297
pump_2           8/28/2015  13:10      0.48856290277572817
pump_2           8/28/2015  13:20      0.5853348513004566
pump_2           8/28/2015  13:30      0.4172121656334479
pump_2           8/28/2015  13:40      0.5177479770751413
pump_2           8/28/2015  13:50      0.564625008936293
pump_2           8/28/2015  14:00      0.5457589041144715
pump_2           8/28/2015  14:10      0.524896190457536
pump_2           8/28/2015  14:20      0.5686781523762552
pump_2           8/28/2015  14:30      0.5231896452140636
pump_2           8/28/2015  14:40      0.43200147256686444
pump_2           8/28/2015  14:50      0.583522090938101
pump_2           8/28/2015  15:00      0.6085496955156355
pump_2           8/28/2015  15:10      0.4967672652376772
pump_2           8/28/2015  15:20      0.5552832198349253
pump_2           8/28/2015  15:30      0.5007620948791169
pump_2           8/28/2015  15:40      0.47439458610958696
;
pump_3           8/28/2015  08:10      0.18773078964467604
pump_3           8/28/2015  08:20      0.21312758255889916
pump_3           8/28/2015  08:30      0.39638612943739693
pump_3           8/28/2015  08:40      0.22715174191889442
pump_3           8/28/2015  08:50      0.41787812964174265
pump_3           8/28/2015  09:00      0.5284814766243224
pump_3           8/28/2015  09:10      0.3981680249677424
pump_3           8/28/2015  09:20      0.4050490402167294
pump_3           8/28/2015  09:30      0.4838232145979861
pump_3           8/28/2015  09:40      0.2990878905322566
pump_3           8/28/2015  09:50      0.2621592085799338
pump_3           8/28/2015  10:00      0.3095144288414206
pump_3           8/28/2015  10:10      0.5994402421629389
pump_3           8/28/2015  10:20      0.6070313286888398
pump_3           8/28/2015  10:30      0.6134031438734068
pump_3           8/28/2015  10:40      0.49771704555171664
pump_3           8/28/2015  10:50      0.5835577702137678
pump_3           8/28/2015  11:00      0.4318662770612525
pump_3           8/28/2015  11:10      0.3960326370658874
pump_3           8/28/2015  11:20      0.620306482986403
pump_3           8/28/2015  11:30      0.5913964489212834
pump_3           8/28/2015  11:40      0.5198745346118501
pump_3           8/28/2015  11:50      0.6589866305347526
pump_3           8/28/2015  12:00      0.5144853424906799
pump_3           8/28/2015  12:10      0.503805485876534
pump_3           8/28/2015  12:20      0.49923680727189845
pump_3           8/28/2015  12:30      0.6989804111068277
pump_3           8/28/2015  12:40      0.4482919481818911
pump_3           8/28/2015  12:50      0.5357022421511108
pump_3           8/28/2015  13:00      0.5477825003462969
pump_3           8/28/2015  13:10      0.5249629027757281
pump_3           8/28/2015  13:20      0.6217348513004566
pump_3           8/28/2015  13:30      0.45361216563344786
pump_3           8/28/2015  13:40      0.5541479770751413
pump_3           8/28/2015  13:50      0.601025008936293
pump_3           8/28/2015  14:00      0.5821589041144715
pump_3           8/28/2015  14:10      0.561296190457536
pump_3           8/28/2015  14:20      0.6050781523762552
pump_3           8/28/2015  14:30      0.5595896452140636
pump_3           8/28/2015  14:40      0.46840147256686443
pump_3           8/28/2015  14:50      0.619922090938101
pump_3           8/28/2015  15:00      0.6449496955156355
pump_3           8/28/2015  15:10      0.5331672652376772
pump_3           8/28/2015  15:20      0.5916832198349253
pump_3           8/28/2015  15:30      0.5371620948791169
pump_3           8/28/2015  15:40      0.510794586109587
;
pump_4           8/28/2015  08:10      0.998330789644676
pump_4           8/28/2015  08:20      1.0237275825588992
pump_4           8/28/2015  08:30      1.206986129437397
pump_4           8/28/2015  08:40      1.0377517419188944
pump_4           8/28/2015  08:50      1.2284781296417426
pump_4           8/28/2015  09:00      1.3390814766243224
pump_4           8/28/2015  09:10      1.2087680249677424
pump_4           8/28/2015  09:20      1.2156490402167295
pump_4           8/28/2015  09:30      1.2944232145979861
pump_4           8/28/2015  09:40      1.1096878905322565
pump_4           8/28/2015  09:50      1.0727592085799338
pump_4           8/28/2015  10:00      1.1201144288414207
pump_4           8/28/2015  10:10      1.247140242162939
pump_4           8/28/2015  10:20      1.2547313286888397
pump_4           8/28/2015  10:30      1.2611031438734068
pump_4           8/28/2015  10:40      1.1454170455517168
pump_4           8/28/2015  10:50      1.2312577702137677