[TITLE]
;;Project Title/Notes

[OPTIONS]
;;Option             Value
FLOW_UNITS           CMS
INFILTRATION         HORTON
FLOW_ROUTING         DYNWAVE
LINK_OFFSETS         DEPTH
MIN_SLOPE            0
ALLOW_PONDING        YES
SKIP_STEADY_STATE    NO

START_DATE           08/28/2015
START_TIME           08:00
REPORT_START_DATE    08/28/2015
REPORT_START_TIME    08:00
END_DATE             08/28/2015
END_TIME             15:50
SWEEP_START          01/01
SWEEP_END            12/31
DRY_DAYS             0
REPORT_STEP          00:01:00
WET_STEP             00:01:00
DRY_STEP             00:01:00
ROUTING_STEP         0:00:05 
RULE_STEP            00:00:00

INERTIAL_DAMPING     PARTIAL
NORMAL_FLOW_LIMITED  BOTH
FORCE_MAIN_EQUATION  H-W
VARIABLE_STEP        0.75
LENGTHENING_STEP     0
MIN_SURFAREA         1.167
MAX_TRIALS           8
HEAD_TOLERANCE       0.0015
SYS_FLOW_TOL         5
LAT_FLOW_TOL         5
MINIMUM_STEP         0.5
THREADS              1

[EVAPORATION]
;;Data Source    Parameters
;;-------------- ----------------
CONSTANT         0.0
DRY_ONLY         NO

[RAINGAGES]
;;Name           Format    Interval SCF      Source    
;;-------------- --------- ------ ------ ----------
RG1              INTENSITY 0:01     1.0      TIMESERIES Oneyear-2h      
RG2              INTENSITY 0:01     1.0      TIMESERIES Oneyear-2h      
RG3              INTENSITY 0:01     1.0      TIMESERIES Oneyear-2h      
RG4              INTENSITY 0:01     1.0      TIMESERIES Oneyear-2h      

[SUBCATCHMENTS]
;;Name           Rain Gage        Outlet           Area     %Imperv  Width    %Slope   CurbLen  SnowPack        
;;-------------- ---------------- ---------------- -------- -------- -------- -------- -------- ----------------
SC01             RG4              J16              33       100      2400     0.8      0.0                      
SC02             RG3              J13              22.75    100      1500     0.8      0                        
SC03             RG1              J10              18       100      2000     0.5      0                        
SC04             RG3              J5               6.9      100      200      0.7      0                        
SC05             RG4              J1               15.6     100      1000     0.5      0                        
SC06             RG2              J8               32.55    100      985      0.5      0                        
SC07             RG3              CSO7             4.75     100      360      0.51     0                        
SC08             RG1              CSO8             28       100      1950     0.45     0                        
SC09             RG2              CSO9             6.9      100      650      0.4      0                        
SC010            RG4              CSO10            11.75    100      650      0.5      0                        

[SUBAREAS]
;;Subcatchment   N-Imperv   N-Perv     S-Imperv   S-Perv     PctZero    RouteTo    PctRouted 
;;-------------- ---------- ---------- ---------- ---------- ---------- ---------- ----------
SC01             0.009      0.10       0.05       0.05       0.0        OUTLET    
SC02             0.009      0.1        0.05       0.05       0          OUTLET    
SC03             0.007      0.1        0.05       0.05       0          OUTLET    
SC04             0.009      0.1        0.05       0.05       0          OUTLET    
SC05             0.007      0.1        0.05       0.05       0          OUTLET    
SC06             0.01       0.1        0.05       0.05       0          OUTLET    
SC07             0.02       0.1        0.05       0.05       0          OUTLET    
SC08             0.01       0.1        0.05       0.05       0          OUTLET    
SC09             0.016      0.1        0.05       0.05       0          OUTLET    
SC010            0.008      0.1        0.05       0.05       0          OUTLET    

[INFILTRATION]
;;Subcatchment   MaxRate    MinRate    Decay      DryTime    MaxInfil  
;;-------------- ---------- ---------- ---------- ---------- ----------
SC01             3.0        0.5        4          7          0         
SC02             3.0        0.5        4          7          0         
SC03             3.0        0.5        4          7          0         
SC04             3.0        0.5        4          7          0         
SC05             3.0        0.5        4          7          0         
SC06             3.0        0.5        4          7          0         
SC07             3.0        0.5        4          7          0         
SC08             3.0        0.5        4          7          0         
SC09             3.0        0.5        4          7          0         
SC010            3.0        0.5        4          7          0         

[JUNCTIONS]
;;Name           Elevation  MaxDepth   InitDepth  SurDepth   Aponded   
;;-------------- ---------- ---------- ---------- ---------- ----------
J1               34.000000  2          0.000000   05.000000  0.000000  
J3               18.000000  2          0.000000   0.000000   0.000000  
CSO7             34.00000   1.2        0.000000   0.000000   0.000     
J5               32.00000   2.000000   0.000000   0.000000   0.000000  
CSO9             40.000000  2          0.000000   0.000000   0.000000  
J8               36.000000  3.000000   0.000000   0.000000   0.000000  
CSO8             32.000000  2          0.000000   0.00000    0.00000   
J10              29.000000  2.000000   0.000000   0.000000   0.000000  
J13              29.000000  2.000000   0.000000   0.000000   0.000000  
J15              15.000000  3.000000   0.000000   0.000000   0.000000  
J16              30.000000  2.000000   0.000000   0.000000   0.000000  
CSO10            30.000000  1.00000    0.000000   0.000000   0.000000  
J12              26.000000  2.000000   0.000000   0.000000   0.000000  
J4               33         2.0        0.00000    0.00000    0.00000   
J6               25         2          0.0000     0.0000     0.0000    
J2               25         2          0.00000    0.00000    0.00000   
J19              8          2          0.0000     0.0000     0.0000    
J9               29         2          0.0000     0.0000     0.0000    
J14              20         2          0.0000     0.0000     0.0000    
J17              20         2          0.0000     0.0000     0.0000    
J7               39         2          0.00000    0.00000    0.00000   
J11              31         2          0.0000     0.0000     0.0000    
J18              29         2          0.0000     0.0000     0.0000    

[OUTFALLS]
;;Name           Elevation  Type       Stage Data       Gated    Route To        
;;-------------- ---------- ---------- ---------------- -------- ----------------
Out_to_WWTP      6          FREE                        NO                       

[STORAGE]
;;Name           Elev.    MaxDepth   InitDepth  Shape      Curve Name/Params            N/A      Fevap    Psi      Ksat     IMD     
;;-------------- -------- ---------- ----------- ---------- ---------------------------- -------- --------          -------- --------
T5               27.000000 5.000000   0.000000   TABULAR    Tank5                        0.000000 0.000000
T4               27.000000 5.000000   0.000000   TABULAR    Tank4                        0.000000 0.000000
T6               31.000000 5.000000   0.000000   TABULAR    Tank6                        0        0       
T3               22.000000 5.000000   0.000000   TABULAR    Tank3                        0.000000 0.000000
T2               21.000000 5.000000   0.000000   TABULAR    Tank2                        0.000000 0.000000
T1               10.000000 5.000000   0.000000   TABULAR    Tank1                        0.000000 0.000000

[CONDUITS]
;;Name           From Node        To Node          Length     Roughness  InOffset   OutOffset  InitFlow   MaxFlow   
;;-------------- ---------------- ---------------- ---------- ---------- ---------- ---------- ---------- ----------
C1               J2               J3               400        0.013      0.00000    0.00000    0.00000    0         
C6               J4               J5               400        0.01       0.00000    0.00000    0.00000    0         
C2               J6               J3               400        0.012      0.00000    0.00000    0.00000    0         
C9               J7               J8               500        0.013      0.00000    0.00000    0.00000    0         
C16              J11              J10              500        0.012      0.0000     0.0000     0.00000    0         
C3               J14              J3               200        0.012      0.000      0.000      0.00000    0         
C19              J17              J15              400        0.012      0.00000    0.00000    0.00000    0         
C11              J3               J15              200        0.012      0.0000     0.0000     0.00000    0         
C20              J16              J15              400        0.012      0.0000     0.0000     0.00000    0         
C22              J18              J15              500        0.013      0.0000     0.0000     0.00000    0         
C12              J9               J12              500        0.012      0.00000    0.00000    0.00000    0         
C17              J10              J12              200        0.012      0.0000     0.0000     0.00000    0         
C10              J8               T6               310.5      0.012      0.00000    0.00000    0.00000    0         
C13              J12              T3               375        0.012      0          0          0.00000    0         
C18              J13              T2               257        0.013      0.0000     0.0000     0.00000    0         
C23              J15              T1               305        0.013      0.0000     0.0000     0.00000    0         
C4               J1               T5               278        0.012      0.0000     0.0000     0.00000    0         
C7               J5               T4               204        0.012      0.00000    0.00000    0.00000    0         
C14              J19              Out_to_WWTP      200        0.011      0.0000     0.0000     0.0000     0         
C5               CSO7             J4               100        0.014      0.0000     0.0000     0.0000     0         
C8               CSO9             J7               100        0.0185     0.0000     0.0000     0.00000    0         
C15              CSO8             J11              100        0.012      0.0000     0.0000     0.0000     0         
C21              CSO10            J18              100        0.02       0.00000    0.00000    0.00000    0         

[ORIFICES]
;;Name           From Node        To Node          Type         Offset     Qcoeff     Gated    CloseTime 
;;-------------- ---------------- ---------------- ------------ ---------- ---------- -------- ----------
V4               T4               J6               SIDE         0.00000    1          NO       0         
V5               T5               J2               SIDE         0.0000     1          NO       0         
V1               T1               J19              SIDE         0.00000    1          NO       0         
V6               T6               J9               SIDE         0.0000     1          NO       0         
V3               T3               J14              SIDE         0.0000     1          NO       0         
V2               T2               J17              SIDE         0.0000     1          NO       0         

[XSECTIONS]
;;Link           Shape        Geom1            Geom2      Geom3      Geom4      Barrels    Culvert   
;;-------------- ------------ ---------------- ---------- ---------- ---------- ---------- ----------
C1               CIRCULAR     1                0          0          0          1                    
C6               CIRCULAR     0.3              0          0          0          1                    
C2               CIRCULAR     0.6              0          0          0          1                    
C9               CIRCULAR     0.5              0          0          0          1                    
C16              CIRCULAR     2                0          0          0          1                    
C3               CIRCULAR     1                0          0          0          1                    
C19              CIRCULAR     1                0          0          0          1                    
C11              CIRCULAR     2                0          0          0          1                    
C20              CIRCULAR     2                0          0          0          1                    
C22              CIRCULAR     0.8              0          0          0          1                    
C12              CIRCULAR     2                0          0          0          1                    
C17              CIRCULAR     2                0          0          0          1                    
C10              CIRCULAR     1.5              0          0          0          1                    
C13              CIRCULAR     2                0          0          0          1                    
C18              CIRCULAR     2                0          0          0          1                    
C23              CIRCULAR     1.5              0          0          0          1                    
C4               CIRCULAR     1                0          0          0          1                    
C7               CIRCULAR     1                0          0          0          1                    
C14              CIRCULAR     2                0          0          0          1                    
C5               CIRCULAR     0.2555           0          0          0          1                    
C8               CIRCULAR     0.318            0          0          0          1                    
C15              CIRCULAR     0.453            0          0          0          1                    
C21              CIRCULAR     0.44             0          0          0          1                    
V4               RECT_CLOSED  0.0264           0.3048     0          0
V5               RECT_CLOSED  0.013            0.3048     0          0
V1               RECT_CLOSED  0.09             0.3048     0          0
V6               RECT_CLOSED  0.0581           0.3048     0          0
V3               RECT_CLOSED  0.063            0.3048     0          0
V2               RECT_CLOSED  0.0465           0.3048     0          0

[LOSSES]
;;Link           Kentry     Kexit      Kavg       Flap Gate  Seepage   
;;-------------- ---------- ---------- ---------- ---------- ----------
C1               0.00000    0.00000    0.00000    NO         0.00000   
C6               0.00000    0.00000    0.00000    NO         0.00000   
C2               0.00000    0.00000    0.00000    NO         0.00000   
C9               0.00000    0.00000    0.00000    NO         0.00000   
C16              0.00000    0.00000    0.00000    NO         0         
C3               0.00000    0.00000    0.00000    NO         0         
C19              0.00000    0.00000    0.00000    NO         0.00000   
C11              0.00000    0.00000    0.00000    NO         0.00000   
C20              0.00000    0.00000    0.00000    NO         0.0000    
C22              0.00000    0.00000    0.00000    NO         0.0000    
C12              0.00000    0.00000    0.00000    NO         0.00000   
C17              0.00000    0.00000    0.00000    NO         0.0000    
C10              0.00000    0.00000    0.00000    NO         0.00000   
C13              0.00000    0.00000    0.00000    NO         0         
C18              0.00000    0.00000    0.00000    NO         0.0000    
C23              0.00000    0.00000    0.00000    NO         0.0000    
C4               0.00000    0.00000    0.00000    NO         0.00000   
C7               0.00000    0.00000    0.00000    NO         0.00000   
C14              0.0000     0.0000     0.0000     NO         0.0000    
C5               0.00000    0.00000    0.00000    NO         0.00000   
C8               0.00000    0.00000    0.00000    NO         0.00000   
C15              0.0000     0.0000     0.0000     NO         0.0000    
C21              0.00000    0.00000    0.00000    NO         0.00000   

[CONTROLS]
RULE R0
IF SIMULATION TIME > 0
THEN ORIFICE V1 SETTING = TIMESERIES pump_0

RULE R1
IF SIMULATION TIME > 0
THEN ORIFICE V2 SETTING = TIMESERIES pump_1

RULE R2
IF SIMULATION TIME > 0
THEN ORIFICE V3 SETTING = TIMESERIES pump_2

RULE R3
IF SIMULATION TIME > 0
THEN ORIFICE V4 SETTING = TIMESERIES pump_3

RULE R4
IF SIMULATION TIME > 0
THEN ORIFICE V5 SETTING = TIMESERIES pump_4

RULE R5
IF SIMULATION TIME > 0
THEN ORIFICE V6 SETTING = TIMESERIES pump_5



[DWF]
;;Node           Constituent      Baseline   Patterns  
;;-------------- ---------------- ---------- ----------
J1               FLOW             0.01269    "" "DWF"
CSO7             FLOW             0.00656    "" "DWF"
J5               FLOW             0.00288    "" "DWF"
CSO9             FLOW             0.00443    "" "DWF"
J8               FLOW             0.02126    "" "DWF"
CSO8             FLOW             0.00518    "DWFCommercial0"
J10              FLOW             0.00871    "" "DWF"
J13              FLOW             0.01056    "" "DWF"
J16              FLOW             0.01251    "" "DWF"
CSO10            FLOW             0.00314    "" "DWF"

[CURVES]
;;Name           Type       X-Value    Y-Value   
;;-------------- ---------- ---------- ----------
Tank1            Storage    0          140       
Tank1                       5          140       
;
Tank2            Storage    0          200       
Tank2                       5          200       
;
Tank3            Storage    0          520       
Tank3                       5          520       
;
Tank4            Storage    0          100       
Tank4                       5          100       
;
Tank5            Storage    0          100       
Tank5                       5          100       
;
Tank6            Storage    0          120       
Tank6                       5          120       

[TIMESERIES]
;;Name           Date       Time       Value     
;;-------------- ---------- ---------- ----------
pump_0           8/28/2015  08:10      5.054882432375434
pump_0           8/28/2015  08:20      4.71939782740965
pump_0           8/28/2015  08:30      3.7566951610419808
pump_0           8/28/2015  08:40      3.9678257048837273
pump_0           8/28/2015  08:50      5.117821071132053
pump_0           8/28/2015  09:00      3.065225103846525
pump_0           8/28/2015  09:10      5.071726927504732
pump_0           8/28/2015  09:20      4.737795832607961
pump_0           8/28/2015  09:30      5.123830923116923
pump_0           8/28/2015  09:40      4.6898588536303585
pump_0           8/28/2015  09:50      3.5116779571078425
pump_0           8/28/2015  10:00      4.207609723979995
pump_0           8/28/2015  10:10      3.643660201140706
pump_0           8/28/2015  10:20      3.8045191660898032
pump_0           8/28/2015  10:30      4.6368027283095845
pump_0           8/28/2015  10:40      5.126794944457108
pump_0           8/28/2015  10:50      6.2419995461667845
pump_0           8/28/2015  11:00      4.3550116599879924
pump_0           8/28/2015  11:10      3.4528239206161127
pump_0           8/28/2015  11:20      4.289018121376708
pump_0           8/28/2015  11:30      4.439454608428758
pump_0           8/28/2015  11:40      5.168185033826266
pump_0           8/28/2015  11:50      3.8255060910422753
pump_0           8/28/2015  12:00      6.038772570255181
pump_0           8/28/2015  12:10      4.603441744018695
pump_0           8/28/2015  12:20      5.505749636579712
pump_0           8/28/2015  12:30      3.2510316612011554
pump_0           8/28/2015  12:40      3.704626095332705
pump_0           8/28/2015  12:50      2.9338093583257008
pump_0           8/28/2015  13:00      4.292387132424743
pump_0           8/28/2015  13:10      3.6895295121755884
pump_0           8/28/2015  13:20      4.167850290305552
pump_0           8/28/2015  13:30      5.379628891960322
pump_0           8/28/2015  13:40      3.9890626236999553
pump_0           8/28/2015  13:50      6.228638975787129
pump_0           8/28/2015  14:00      3.102253486288782
pump_0           8/28/2015  14:10      1.17953536315841
pump_0           8/28/2015  14:20      4.658073374754293
pump_0           8/28/2015  14:30      4.645094311659051
pump_0           8/28/2015  14:40      2.9994933808336266
pump_0           8/28/2015  14:50      3.3274989829560657
pump_0           8/28/2015  15:00      3.5121580677410855
pump_0           8/28/2015  15:10      4.203021091497303
pump_0           8/28/2015  15:20      6.561216585380562
pump_0           8/28/2015  15:30      4.458449491550864
pump_0           8/28/2015  15:40      2.8218050846065843
;
pump_1           8/28/2015  08:10      4.291482432375434
pump_1           8/28/2015  08:20      3.95599782740965
pump_1           8/28/2015  08:30      2.993295161041981
pump_1           8/28/2015  08:40      3.2044257048837275
pump_1           8/28/2015  08:50      4.3544210711320535
pump_1           8/28/2015  09:00      2.301825103846525
pump_1           8/28/2015  09:10      4.308326927504732
pump_1           8/28/2015  09:20      3.974395832607961
pump_1           8/28/2015  09:30      4.360430923116923
pump_1           8/28/2015  09:40      3.926458853630359
pump_1           8/28/2015  09:50      2.7482779571078426
pump_1           8/28/2015  10:00      3.444209723979995
pump_1           8/28/2015  10:10      2.880260201140706
pump_1           8/28/2015  10:20      2.912019166089803
pump_1           8/28/2015  10:30      3.7443027283095844
pump_1           8/28/2015  10:40      4.234294944457108
pump_1           8/28/2015  10:50      5.3494995461667845
pump_1           8/28/2015  11:00      3.5916116599879926
pump_1           8/28/2015  11:10      2.689423920616113
pump_1           8/28/2015  11:20      3.525618121376708
pump_1           8/28/2015  11:30      3.6760546084287578
pump_1           8/28/2015  11:40      4.404785033826266
pump_1           8/28/2015  11:50      3.0621060910422755
pump_1           8/28/2015  12:00      5.275372570255181
pump_1           8/28/2015  12:10      3.840041744018695
pump_1           8/28/2015  12:20      4.742349636579712
pump_1           8/28/2015  12:30      2.4876316612011555
pump_1           8/28/2015  12:40      2.812126095332705
pump_1           8/28/2015  12:50      2.0413093583257007
pump_1           8/28/2015  13:00      3.3998871324247433
pump_1           8/28/2015  13:10      2.7970295121755884
pump_1           8/28/2015  13:20      3.2753502903055516
pump_1           8/28/2015  13:30      4.487128891960322
pump_1           8/28/2015  13:40      3.0965626236999553
pump_1           8/28/2015  13:50      5.336138975787129
pump_1           8/28/2015  14:00      2.2097534862887818
pump_1           8/28/2015  14:10      0.28703536315841
pump_1           8/28/2015  14:20      3.7655733747542937
pump_1           8/28/2015  14:30      3.752594311659051
pump_1           8/28/2015  14:40      2.1069933808336265
pump_1           8/28/2015  14:50      2.4349989829560656
pump_1           8/28/2015  15:00      2.6196580677410854
pump_1           8/28/2015  15:10      3.3105210914973027
pump_1           8/28/2015  15:20      5.668716585380562
pump_1           8/28/2015  15:30      3.5659494915508634
pump_1           8/28/2015  15:40      1.9293050846065842
;
pump_2           8/28/2015  08:10      4.7056824323754345
pump_2           8/28/2015  08:20      4.37019782740965
pump_2           8/28/2015  08:30      3.4074951610419806
pump_2           8/28/2015  08:40      3.618625704883727
pump_2           8/28/2015  08:50      4.433721071132053
pump_2           8/28/2015  09:00      2.381125103846525
pump_2           8/28/2015  09:10      4.387626927504732
pump_2           8/28/2015  09:20      4.053695832607961
pump_2           8/28/2015  09:30      4.439730923116923
pump_2           8/28/2015  09:40      4.0057588536303586
pump_2           8/28/2015  09:50      2.8275779571078425
pump_2           8/28/2015  10:00      3.523509723979995
pump_2           8/28/2015  10:10      2.959560201140706
pump_2           8/28/2015  10:20      3.4553191660898035
pump_2           8/28/2015  10:30      4.287602728309585
pump_2           8/28/2015  10:40      4.777594944457109
pump_2           8/28/2015  10:50      5.892799546166785
pump_2           8/28/2015  11:00      3.6709116599879925
pump_2           8/28/2015  11:10      2.7687239206161127
pump_2           8/28/2015  11:20      3.604918121376708
pump_2           8/28/2015  11:30      3.7553546084287577
pump_2           8/28/2015  11:40      4.484085033826266
pump_2           8/28/2015  11:50      3.1414060910422754
pump_2           8/28/2015  12:00      5.689572570255181
pump_2           8/28/2015  12:10      4.254241744018695
pump_2           8/28/2015  12:20      5.1565496365797125
pump_2           8/28/2015  12:30      2.9018316612011557
pump_2           8/28/2015  12:40      3.355426095332705
pump_2           8/28/2015  12:50      2.5846093583257006
pump_2           8/28/2015  13:00      3.943187132424743
pump_2           8/28/2015  13:10      3.3403295121755887
pump_2           8/28/2015  13:20      3.818650290305552
pump_2           8/28/2015  13:30      5.030428891960322
pump_2           8/28/2015  13:40      3.6398626236999556
pump_2           8/28/2015  13:50      5.87943897578713
pump_2           8/28/2015  14:00      2.753053486288782
pump_2           8/28/2015  14:10      0.8303353631584101
pump_2           8/28/2015  14:20      4.3088733747542936
pump_2           8/28/2015  14:30      4.295894311659051
pump_2           8/28/2015  14:40      2.6502933808336264
pump_2           8/28/2015  14:50      2.9782989829560655
pump_2           8/28/2015  15:00      3.1629580677410853
pump_2           8/28/2015  15:10      3.853821091497303
pump_2           8/28/2015  15:20      6.212016585380562
pump_2           8/28/2015  15:30      4.109249491550863
pump_2           8/28/2015  15:40      2.4726050846065846
;
pump_3           8/28/2015  08:10      4.244282432375434
pump_3           8/28/2015  08:20      3.90879782740965
pump_3           8/28/2015  08:30      2.9460951610419808
pump_3           8/28/2015  08:40      3.1572257048837273
pump_3           8/28/2015  08:50      4.307221071132053
pump_3           8/28/2015  09:00      2.254625103846525
pump_3           8/28/2015  09:10      4.261126927504732
pump_3           8/28/2015  09:20      3.927195832607961
pump_3           8/28/2015  09:30      4.313230923116923
pump_3           8/28/2015  09:40      3.879258853630359
pump_3           8/28/2015  09:50      2.7010779571078425
pump_3           8/28/2015  10:00      3.397009723979995
pump_3           8/28/2015  10:10      2.833060201140706
pump_3           8/28/2015  10:20      2.9939191660898032
pump_3           8/28/2015  10:30      3.8262027283095845
pump_3           8/28/2015  10:40      4.316194944457108
pump_3           8/28/2015  10:50      5.4313995461667846
pump_3           8/28/2015  11:00      3.5444116599879925
pump_3           8/28/2015  11:10      2.6422239206161127
pump_3           8/28/2015  11:20      3.478418121376708
pump_3           8/28/2015  11:30      3.6288546084287576
pump_3           8/28/2015  11:40      4.357585033826266
pump_3           8/28/2015  11:50      3.0149060910422754
pump_3           8/28/2015  12:00      5.228172570255181
pump_3           8/28/2015  12:10      3.792841744018695
pump_3           8/28/2015  12:20      4.695149636579712
pump_3           8/28/2015  12:30      2.4404316612011554
pump_3           8/28/2015  12:40      3.056926095332705
pump_3           8/28/2015  12:50      2.2861093583257004
pump_3           8/28/2015  13:00      3.6446871324247434
pump_3           8/28/2015  13:10      3.0418295121755885
pump_3           8/28/2015  13:20      3.5201502903055517
pump_3           8/28/2015  13:30      4.7319288919603215
pump_3           8/28/2015  13:40      3.3413626236999554
pump_3           8/28/2015  13:50      5.580938975787129
pump_3           8/28/2015  14:00      2.454553486288782
pump_3           8/28/2015  14:10      0.5318353631584101
pump_3           8/28/2015  14:20      4.010373374754294
pump_3           8/28/2015  14:30      3.9973943116590513
pump_3           8/28/2015  14:40      2.3517933808336267
pump_3           8/28/2015  14:50      2.679798982956066
pump_3           8/28/2015  15:00      2.8644580677410856
pump_3           8/28/2015  15:10      3.555321091497303
pump_3           8/28/2015  15:20      5.913516585380561
pump_3           8/28/2015  15:30      3.8107494915508635
pump_3           8/28/2015  15:40      2.1741050846065844
;
pump_4           8/28/2015  08:10      5.054882432375434
pump_4           8/28/2015  08:20      4.71939782740965
pump_4           8/28/2015  08:30      3.7566951610419808
pump_4           8/28/2015  08:40      3.9678257048837273
pump_4           8/28/2015  08:50      5.117821071132053
pump_4           8/28/2015  09:00      3.065225103846525
pump_4           8/28/2015  09:10      5.071726927504732
pump_4           8/28/2015  09:20      4.737795832607961
pump_4           8/28/2015  09:30      5.123830923116923
pump_4           8/28/2015  09:40      4.6898588536303585
pump_4           8/28/2015  09:50      3.5116779571078425
pump_4           8/28/2015  10:00      4.207609723979995
pump_4           8/28/2015  10:10      3.643660201140706
pump_4           8/28/2015  10:20      3.8045191660898032
pump_4           8/28/2015  10:30      4.6368027283095845
pump_4           8/28/2015  10:40      5.126794944457108
pump_4           8/28/2015  10:50      6.2419995461667845
pump_4           8/28/2015  11:00      4.3550116599879924
pump_4           8/28/2015  11:10      3.4528239206161127