[TITLE]
;;Project Title/Notes

[OPTIONS]
;;Option             Value
FLOW_UNITS           CMS
INFILTRATION         HORTON
FLOW_ROUTING         DYNWAVE
LINK_OFFSETS         DEPTH
MIN_SLOPE            0
ALLOW_PONDING        YES
SKIP_STEADY_STATE    NO

START_DATE           08/28/2015
START_TIME           08:00
REPORT_START_DATE    08/28/2015
REPORT_START_TIME    08:00
END_DATE             08/28/2015
END_TIME             15:50
SWEEP_START          01/01
SWEEP_END            12/31
DRY_DAYS             0
REPORT_STEP          00:01:00
WET_STEP             00:01:00
DRY_STEP             00:01:00
ROUTING_STEP         0:00:05 
RULE_STEP            00:00:00

INERTIAL_DAMPING     PARTIAL
NORMAL_FLOW_LIMITED  BOTH
FORCE_MAIN_EQUATION  H-W
VARIABLE_STEP        0.75
LENGTHENING_STEP     0
MIN_SURFAREA         1.167
MAX_TRIALS           8
HEAD_TOLERANCE       0.0015
SYS_FLOW_TOL         5
LAT_FLOW_TOL         5
MINIMUM_STEP         0.5
THREADS              1

[EVAPORATION]
;;Data Source    Parameters
;;-------------- ----------------
CONSTANT         0.0
DRY_ONLY         NO

[RAINGAGES]
;;Name           Format    Interval SCF      Source    
;;-------------- --------- ------ ------ ----------
RG1              INTENSITY 0:01     1.0      TIMESERIES Oneyear-2h      
RG2              INTENSITY 0:01     1.0      TIMESERIES Oneyear-2h      
RG3              INTENSITY 0:01     1.0      TIMESERIES Oneyear-2h      
RG4              INTENSITY 0:01     1.0      TIMESERIES Oneyear-2h      

[SUBCATCHMENTS]
;;Name           Rain Gage        Outlet           Area     %Imperv  Width    %Slope   CurbLen  SnowPack        
;;-------------- ---------------- ---------------- -------- -------- -------- -------- -------- ----------------
SC01             RG4              J16              33       100      2400     0.8      0.0                      
SC02             RG3              J13              22.75    100      1500     0.8      0                        
SC03             RG1              J10              18       100      2000     0.5      0                        
SC04             RG3              J5               6.9      100      200      0.7      0                        
SC05             RG4              J1               15.6     100      1000     0.5      0                        
SC06             RG2              J8               32.55    100      985      0.5      0                        
SC07             RG3              CSO7             4.75     100      360      0.51     0                        
SC08             RG1              CSO8             28       100      1950     0.45     0                        
SC09             RG2              CSO9             6.9      100      650      0.4      0                        
SC010            RG4              CSO10            11.75    100      650      0.5      0                        

[SUBAREAS]
;;Subcatchment   N-Imperv   N-Perv     S-Imperv   S-Perv     PctZero    RouteTo    PctRouted 
;;-------------- ---------- ---------- ---------- ---------- ---------- ---------- ----------
SC01             0.009      0.10       0.05       0.05       0.0        OUTLET    
SC02             0.009      0.1        0.05       0.05       0          OUTLET    
SC03             0.007      0.1        0.05       0.05       0          OUTLET    
SC04             0.009      0.1        0.05       0.05       0          OUTLET    
SC05             0.007      0.1        0.05       0.05       0          OUTLET    
SC06             0.01       0.1        0.05       0.05       0          OUTLET    
SC07             0.02       0.1        0.05       0.05       0          OUTLET    
SC08             0.01       0.1        0.05       0.05       0          OUTLET    
SC09             0.016      0.1        0.05       0.05       0          OUTLET    
SC010            0.008      0.1        0.05       0.05       0          OUTLET    

[INFILTRATION]
;;Subcatchment   MaxRate    MinRate    Decay      DryTime    MaxInfil  
;;-------------- ---------- ---------- ---------- ---------- ----------
SC01             3.0        0.5        4          7          0         
SC02             3.0        0.5        4          7          0         
SC03             3.0        0.5        4          7          0         
SC04             3.0        0.5        4          7          0         
SC05             3.0        0.5        4          7          0         
SC06             3.0        0.5        4          7          0         
SC07             3.0        0.5        4          7          0         
SC08             3.0        0.5        4          7          0         
SC09             3.0        0.5        4          7          0         
SC010            3.0        0.5        4          7          0         

[JUNCTIONS]
;;Name           Elevation  MaxDepth   InitDepth  SurDepth   Aponded   
;;-------------- ---------- ---------- ---------- ---------- ----------
J1               34.000000  2          0.000000   05.000000  0.000000  
J3               18.000000  2          0.000000   0.000000   0.000000  
CSO7             34.00000   1.2        0.000000   0.000000   0.000     
J5               32.00000   2.000000   0.000000   0.000000   0.000000  
CSO9             40.000000  2          0.000000   0.000000   0.000000  
J8               36.000000  3.000000   0.000000   0.000000   0.000000  
CSO8             32.000000  2          0.000000   0.00000    0.00000   
J10              29.000000  2.000000   0.000000   0.000000   0.000000  
J13              29.000000  2.000000   0.000000   0.000000   0.000000  
J15              15.000000  3.000000   0.000000   0.000000   0.000000  
J16              30.000000  2.000000   0.000000   0.000000   0.000000  
CSO10            30.000000  1.00000    0.000000   0.000000   0.000000  
J12              26.000000  2.000000   0.000000   0.000000   0.000000  
J4               33         2.0        0.00000    0.00000    0.00000   
J6               25         2          0.0000     0.0000     0.0000    
J2               25         2          0.00000    0.00000    0.00000   
J19              8          2          0.0000     0.0000     0.0000    
J9               29         2          0.0000     0.0000     0.0000    
J14              20         2          0.0000     0.0000     0.0000    
J17              20         2          0.0000     0.0000     0.0000    
J7               39         2          0.00000    0.00000    0.00000   
J11              31         2          0.0000     0.0000     0.0000    
J18              29         2          0.0000     0.0000     0.0000    

[OUTFALLS]
;;Name           Elevation  Type       Stage Data       Gated    Route To        
;;-------------- ---------- ---------- ---------------- -------- ----------------
Out_to_WWTP      6          FREE                        NO                       

[STORAGE]
;;Name           Elev.    MaxDepth   InitDepth  Shape      Curve Name/Params            N/A      Fevap    Psi      Ksat     IMD     
;;-------------- -------- ---------- ----------- ---------- ---------------------------- -------- --------          -------- --------
T5               27.000000 5.000000   0.000000   TABULAR    Tank5                        0.000000 0.000000
T4               27.000000 5.000000   0.000000   TABULAR    Tank4                        0.000000 0.000000
T6               31.000000 5.000000   0.000000   TABULAR    Tank6                        0        0       
T3               22.000000 5.000000   0.000000   TABULAR    Tank3                        0.000000 0.000000
T2               21.000000 5.000000   0.000000   TABULAR    Tank2                        0.000000 0.000000
T1               10.000000 5.000000   0.000000   TABULAR    Tank1                        0.000000 0.000000

[CONDUITS]
;;Name           From Node        To Node          Length     Roughness  InOffset   OutOffset  InitFlow   MaxFlow   
;;-------------- ---------------- ---------------- ---------- ---------- ---------- ---------- ---------- ----------
C1               J2               J3               400        0.013      0.00000    0.00000    0.00000    0         
C6               J4               J5               400        0.01       0.00000    0.00000    0.00000    0         
C2               J6               J3               400        0.012      0.00000    0.00000    0.00000    0         
C9               J7               J8               500        0.013      0.00000    0.00000    0.00000    0         
C16              J11              J10              500        0.012      0.0000     0.0000     0.00000    0         
C3               J14              J3               200        0.012      0.000      0.000      0.00000    0         
C19              J17              J15              400        0.012      0.00000    0.00000    0.00000    0         
C11              J3               J15              200        0.012      0.0000     0.0000     0.00000    0         
C20              J16              J15              400        0.012      0.0000     0.0000     0.00000    0         
C22              J18              J15              500        0.013      0.0000     0.0000     0.00000    0         
C12              J9               J12              500        0.012      0.00000    0.00000    0.00000    0         
C17              J10              J12              200        0.012      0.0000     0.0000     0.00000    0         
C10              J8               T6               310.5      0.012      0.00000    0.00000    0.00000    0         
C13              J12              T3               375        0.012      0          0          0.00000    0         
C18              J13              T2               257        0.013      0.0000     0.0000     0.00000    0         
C23              J15              T1               305        0.013      0.0000     0.0000     0.00000    0         
C4               J1               T5               278        0.012      0.0000     0.0000     0.00000    0         
C7               J5               T4               204        0.012      0.00000    0.00000    0.00000    0         
C14              J19              Out_to_WWTP      200        0.011      0.0000     0.0000     0.0000     0         
C5               CSO7             J4               100        0.014      0.0000     0.0000     0.0000     0         
C8               CSO9             J7               100        0.0185     0.0000     0.0000     0.00000    0         
C15              CSO8             J11              100        0.012      0.0000     0.0000     0.0000     0         
C21              CSO10            J18              100        0.02       0.00000    0.00000    0.00000    0         

[ORIFICES]
;;Name           From Node        To Node          Type         Offset     Qcoeff     Gated    CloseTime 
;;-------------- ---------------- ---------------- ------------ ---------- ---------- -------- ----------
V4               T4               J6               SIDE         0.00000    1          NO       0         
V5               T5               J2               SIDE         0.0000     1          NO       0         
V1               T1               J19              SIDE         0.00000    1          NO       0         
V6               T6               J9               SIDE         0.0000     1          NO       0         
V3               T3               J14              SIDE         0.0000     1          NO       0         
V2               T2               J17              SIDE         0.0000     1          NO       0         

[XSECTIONS]
;;Link           Shape        Geom1            Geom2      Geom3      Geom4      Barrels    Culvert   
;;-------------- ------------ ---------------- ---------- ---------- ---------- ---------- ----------
C1               CIRCULAR     1                0          0          0          1                    
C6               CIRCULAR     0.3              0          0          0          1                    
C2               CIRCULAR     0.6              0          0          0          1                    
C9               CIRCULAR     0.5              0          0          0          1                    
C16              CIRCULAR     2                0          0          0          1                    
C3               CIRCULAR     1                0          0          0          1                    
C19              CIRCULAR     1                0          0          0          1                    
C11              CIRCULAR     2                0          0          0          1                    
C20              CIRCULAR     2                0          0          0          1                    
C22              CIRCULAR     0.8              0          0          0          1                    
C12              CIRCULAR     2                0          0          0          1                    
C17              CIRCULAR     2                0          0          0          1                    
C10              CIRCULAR     1.5              0          0          0          1                    
C13              CIRCULAR     2                0          0          0          1                    
C18              CIRCULAR     2                0          0          0          1                    
C23              CIRCULAR     1.5              0          0          0          1                    
C4               CIRCULAR     1                0          0          0          1                    
C7               CIRCULAR     1                0          0          0          1                    
C14              CIRCULAR     2                0          0          0          1                    
C5               CIRCULAR     0.2555           0          0          0          1                    
C8               CIRCULAR     0.318            0          0          0          1                    
C15              CIRCULAR     0.453            0          0          0          1                    
C21              CIRCULAR     0.44             0          0          0          1                    
V4               RECT_CLOSED  0.0264           0.3048     0          0
V5               RECT_CLOSED  0.013            0.3048     0          0
V1               RECT_CLOSED  0.09             0.3048     0          0
V6               RECT_CLOSED  0.0581           0.3048     0          0
V3               RECT_CLOSED  0.063            0.3048     0          0
V2               RECT_CLOSED  0.0465           0.3048     0          0

[LOSSES]
;;Link           Kentry     Kexit      Kavg       Flap Gate  Seepage   
;;-------------- ---------- ---------- ---------- ---------- ----------
C1               0.00000    0.00000    0.00000    NO         0.00000   
C6               0.00000    0.00000    0.00000    NO         0.00000   
C2               0.00000    0.00000    0.00000    NO         0.00000   
C9               0.00000    0.00000    0.00000    NO         0.00000   
C16              0.00000    0.00000    0.00000    NO         0         
C3               0.00000    0.00000    0.00000    NO         0         
C19              0.00000    0.00000    0.00000    NO         0.00000   
C11              0.00000    0.00000    0.00000    NO         0.00000   
C20              0.00000    0.00000    0.00000    NO         0.0000    
C22              0.00000    0.00000    0.00000    NO         0.0000    
C12              0.00000    0.00000    0.00000    NO         0.00000   
C17              0.00000    0.00000    0.00000    NO         0.0000    
C10              0.00000    0.00000    0.00000    NO         0.00000   
C13              0.00000    0.00000    0.00000    NO         0         
C18              0.00000    0.00000    0.00000    NO         0.0000    
C23              0.00000    0.00000    0.00000    NO         0.0000    
C4               0.00000    0.00000    0.00000    NO         0.00000   
C7               0.00000    0.00000    0.00000    NO         0.00000   
C14              0.0000     0.0000     0.0000     NO         0.0000    
C5               0.00000    0.00000    0.00000    NO         0.00000   
C8               0.00000    0.00000    0.00000    NO         0.00000   
C15              0.0000     0.0000     0.0000     NO         0.0000    
C21              0.00000    0.00000    0.00000    NO         0.00000   

[CONTROLS]
RULE R0
IF SIMULATION TIME > 0
THEN ORIFICE V1 SETTING = TIMESERIES pump_0

RULE R1
IF SIMULATION TIME > 0
THEN ORIFICE V2 SETTING = TIMESERIES pump_1

RULE R2
IF SIMULATION TIME > 0
THEN ORIFICE V3 SETTING = TIMESERIES pump_2

RULE R3
IF SIMULATION TIME > 0
THEN ORIFICE V4 SETTING = TIMESERIES pump_3

RULE R4
IF SIMULATION TIME > 0
THEN ORIFICE V5 SETTING = TIMESERIES pump_4

RULE R5
IF SIMULATION TIME > 0
THEN ORIFICE V6 SETTING = TIMESERIES pump_5



[DWF]
;;Node           Constituent      Baseline   Patterns  
;;-------------- ---------------- ---------- ----------
J1               FLOW             0.01269    "" "DWF"
CSO7             FLOW             0.00656    "" "DWF"
J5               FLOW             0.00288    "" "DWF"
CSO9             FLOW             0.00443    "" "DWF"
J8               FLOW             0.02126    "" "DWF"
CSO8             FLOW             0.00518    "DWFCommercial0"
J10              FLOW             0.00871    "" "DWF"
J13              FLOW             0.01056    "" "DWF"
J16              FLOW             0.01251    "" "DWF"
CSO10            FLOW             0.00314    "" "DWF"

[CURVES]
;;Name           Type       X-Value    Y-Value   
;;-------------- ---------- ---------- ----------
Tank1            Storage    0          140       
Tank1                       5          140       
;
Tank2            Storage    0          200       
Tank2                       5          200       
;
Tank3            Storage    0          520       
Tank3                       5          520       
;
Tank4            Storage    0          100       
Tank4                       5          100       
;
Tank5            Storage    0          100       
Tank5                       5          100       
;
Tank6            Storage    0          120       
Tank6                       5          120       

[TIMESERIES]
;;Name           Date       Time       Value     
;;-------------- ---------- ---------- ----------
pump_0           8/28/2015  08:10      1.8210664576232412
pump_0           8/28/2015  08:20      2.0622850524597114
pump_0           8/28/2015  08:30      1.8521274086974837
pump_0           8/28/2015  08:40      1.8358223174253707
pump_0           8/28/2015  08:50      2.0010307232644724
pump_0           8/28/2015  09:00      1.951115869707802
pump_0           8/28/2015  09:10      1.8759300269822319
pump_0           8/28/2015  09:20      2.1611951417215765
pump_0           8/28/2015  09:30      1.879440981233123
pump_0           8/28/2015  09:40      1.8893833155971014
pump_0           8/28/2015  09:50      1.8007898941635823
pump_0           8/28/2015  10:00      1.809713911674204
pump_0           8/28/2015  10:10      1.967712639039036
pump_0           8/28/2015  10:20      1.7747372781193862
pump_0           8/28/2015  10:30      1.852629276082728
pump_0           8/28/2015  10:40      1.8807845122917115
pump_0           8/28/2015  10:50      1.993589205772031
pump_0           8/28/2015  11:00      2.0887177021937227
pump_0           8/28/2015  11:10      1.9675044169442057
pump_0           8/28/2015  11:20      1.9308673929199291
pump_0           8/28/2015  11:30      1.9598497423873233
pump_0           8/28/2015  11:40      2.0516154798209114
pump_0           8/28/2015  11:50      1.8710740162418356
pump_0           8/28/2015  12:00      1.92338526334867
pump_0           8/28/2015  12:10      1.9917665564042188
pump_0           8/28/2015  12:20      2.0304379245812645
pump_0           8/28/2015  12:30      1.8487608971714793
pump_0           8/28/2015  12:40      1.9991157666101116
pump_0           8/28/2015  12:50      1.8627321800038095
pump_0           8/28/2015  13:00      1.9360406880303773
pump_0           8/28/2015  13:10      1.9634025420256132
pump_0           8/28/2015  13:20      1.9713001329393225
pump_0           8/28/2015  13:30      1.8516680804351169
pump_0           8/28/2015  13:40      1.7077849381569843
pump_0           8/28/2015  13:50      1.823866275650981
pump_0           8/28/2015  14:00      1.951774755785712
pump_0           8/28/2015  14:10      2.03663638707627
pump_0           8/28/2015  14:20      1.9674124498846917
pump_0           8/28/2015  14:30      1.8396957706222719
pump_0           8/28/2015  14:40      1.9966975340144337
pump_0           8/28/2015  14:50      2.0806871729837666
pump_0           8/28/2015  15:00      1.7213125446619113
pump_0           8/28/2015  15:10      1.829499772390622
pump_0           8/28/2015  15:20      1.858177127614729
pump_0           8/28/2015  15:30      1.931600673121791
pump_0           8/28/2015  15:40      2.0734322316016733
;
pump_1           8/28/2015  08:10      1.0576664576232413
pump_1           8/28/2015  08:20      1.2988850524597115
pump_1           8/28/2015  08:30      0.9596274086974838
pump_1           8/28/2015  08:40      0.9433223174253706
pump_1           8/28/2015  08:50      1.108530723264472
pump_1           8/28/2015  09:00      1.058615869707802
pump_1           8/28/2015  09:10      0.9834300269822319
pump_1           8/28/2015  09:20      1.2686951417215764
pump_1           8/28/2015  09:30      0.986940981233123
pump_1           8/28/2015  09:40      0.9968833155971014
pump_1           8/28/2015  09:50      0.9082898941635822
pump_1           8/28/2015  10:00      0.9172139116742041
pump_1           8/28/2015  10:10      1.2043126390390362
pump_1           8/28/2015  10:20      1.0113372781193863
pump_1           8/28/2015  10:30      1.0892292760827282
pump_1           8/28/2015  10:40      1.1173845122917114
pump_1           8/28/2015  10:50      1.230189205772031
pump_1           8/28/2015  11:00      1.3253177021937228
pump_1           8/28/2015  11:10      1.2041044169442057
pump_1           8/28/2015  11:20      1.167467392919929
pump_1           8/28/2015  11:30      1.1964497423873233
pump_1           8/28/2015  11:40      1.2882154798209113
pump_1           8/28/2015  11:50      1.1076740162418355
pump_1           8/28/2015  12:00      1.1599852633486702
pump_1           8/28/2015  12:10      1.2283665564042188
pump_1           8/28/2015  12:20      1.2670379245812644
pump_1           8/28/2015  12:30      1.0853608971714792
pump_1           8/28/2015  12:40      1.2357157666101117
pump_1           8/28/2015  12:50      1.0993321800038094
pump_1           8/28/2015  13:00      1.1726406880303775
pump_1           8/28/2015  13:10      1.200002542025613
pump_1           8/28/2015  13:20      1.2079001329393226
pump_1           8/28/2015  13:30      1.088268080435117
pump_1           8/28/2015  13:40      0.9443849381569843
pump_1           8/28/2015  13:50      1.0604662756509808
pump_1           8/28/2015  14:00      1.1883747557857118
pump_1           8/28/2015  14:10      1.2732363870762697
pump_1           8/28/2015  14:20      1.2040124498846916
pump_1           8/28/2015  14:30      1.0762957706222718
pump_1           8/28/2015  14:40      1.2332975340144336
pump_1           8/28/2015  14:50      1.3172871729837665
pump_1           8/28/2015  15:00      0.9579125446619112
pump_1           8/28/2015  15:10      1.0660997723906218
pump_1           8/28/2015  15:20      1.094777127614729
pump_1           8/28/2015  15:30      1.1682006731217909
pump_1           8/28/2015  15:40      1.310032231601673
;
pump_2           8/28/2015  08:10      1.4718664576232414
pump_2           8/28/2015  08:20      1.7130850524597117
pump_2           8/28/2015  08:30      1.5029274086974838
pump_2           8/28/2015  08:40      1.4866223174253705
pump_2           8/28/2015  08:50      1.6518307232644722
pump_2           8/28/2015  09:00      1.6019158697078022
pump_2           8/28/2015  09:10      1.526730026982232
pump_2           8/28/2015  09:20      1.8119951417215765
pump_2           8/28/2015  09:30      1.530240981233123
pump_2           8/28/2015  09:40      1.5401833155971014
pump_2           8/28/2015  09:50      1.451589894163582
pump_2           8/28/2015  10:00      1.460513911674204
pump_2           8/28/2015  10:10      1.283612639039036
pump_2           8/28/2015  10:20      1.0906372781193863
pump_2           8/28/2015  10:30      1.5034292760827284
pump_2           8/28/2015  10:40      1.1966845122917116
pump_2           8/28/2015  10:50      1.309489205772031
pump_2           8/28/2015  11:00      1.404617702193723
pump_2           8/28/2015  11:10      1.2834044169442058
pump_2           8/28/2015  11:20      1.2467673929199292
pump_2           8/28/2015  11:30      1.2757497423873234
pump_2           8/28/2015  11:40      1.3675154798209115
pump_2           8/28/2015  11:50      1.1869740162418354
pump_2           8/28/2015  12:00      1.2392852633486702
pump_2           8/28/2015  12:10      1.3076665564042187
pump_2           8/28/2015  12:20      1.3463379245812646
pump_2           8/28/2015  12:30      1.1646608971714794
pump_2           8/28/2015  12:40      1.3150157666101117
pump_2           8/28/2015  12:50      1.1786321800038095
pump_2           8/28/2015  13:00      1.2519406880303774
pump_2           8/28/2015  13:10      1.279302542025613
pump_2           8/28/2015  13:20      1.2872001329393226
pump_2           8/28/2015  13:30      1.167568080435117
pump_2           8/28/2015  13:40      1.0236849381569844
pump_2           8/28/2015  13:50      1.139766275650981
pump_2           8/28/2015  14:00      1.267674755785712
pump_2           8/28/2015  14:10      1.3525363870762699
pump_2           8/28/2015  14:20      1.2833124498846915
pump_2           8/28/2015  14:30      1.155595770622272
pump_2           8/28/2015  14:40      1.3125975340144336
pump_2           8/28/2015  14:50      1.3965871729837667
pump_2           8/28/2015  15:00      1.0372125446619112
pump_2           8/28/2015  15:10      1.145399772390622
pump_2           8/28/2015  15:20      1.174077127614729
pump_2           8/28/2015  15:30      1.247500673121791
pump_2           8/28/2015  15:40      1.3893322316016732
;
pump_3           8/28/2015  08:10      1.0104664576232412
pump_3           8/28/2015  08:20      1.2516850524597116
pump_3           8/28/2015  08:30      1.0415274086974837
pump_3           8/28/2015  08:40      1.0252223174253707
pump_3           8/28/2015  08:50      1.1904307232644722
pump_3           8/28/2015  09:00      1.140515869707802
pump_3           8/28/2015  09:10      1.065330026982232
pump_3           8/28/2015  09:20      1.3505951417215765
pump_3           8/28/2015  09:30      1.068840981233123
pump_3           8/28/2015  09:40      1.0787833155971014
pump_3           8/28/2015  09:50      0.9901898941635822
pump_3           8/28/2015  10:00      0.999113911674204
pump_3           8/28/2015  10:10      1.157112639039036
pump_3           8/28/2015  10:20      0.9641372781193863
pump_3           8/28/2015  10:30      1.042029276082728
pump_3           8/28/2015  10:40      1.2330845122917116
pump_3           8/28/2015  10:50      1.345889205772031
pump_3           8/28/2015  11:00      1.441017702193723
pump_3           8/28/2015  11:10      1.3198044169442058
pump_3           8/28/2015  11:20      1.2831673929199292
pump_3           8/28/2015  11:30      1.3121497423873234
pump_3           8/28/2015  11:40      1.4039154798209115
pump_3           8/28/2015  11:50      1.2233740162418354
pump_3           8/28/2015  12:00      1.2756852633486702
pump_3           8/28/2015  12:10      1.3440665564042187
pump_3           8/28/2015  12:20      1.3827379245812645
pump_3           8/28/2015  12:30      1.2010608971714793
pump_3           8/28/2015  12:40      1.3514157666101116
pump_3           8/28/2015  12:50      1.2150321800038095
pump_3           8/28/2015  13:00      1.2883406880303774
pump_3           8/28/2015  13:10      1.315702542025613
pump_3           8/28/2015  13:20      1.3236001329393225
pump_3           8/28/2015  13:30      1.203968080435117
pump_3           8/28/2015  13:40      1.0600849381569843
pump_3           8/28/2015  13:50      1.176166275650981
pump_3           8/28/2015  14:00      1.304074755785712
pump_3           8/28/2015  14:10      1.3889363870762699
pump_3           8/28/2015  14:20      1.3197124498846915
pump_3           8/28/2015  14:30      1.191995770622272
pump_3           8/28/2015  14:40      1.3489975340144336
pump_3           8/28/2015  14:50      1.4329871729837667
pump_3           8/28/2015  15:00      1.0736125446619111
pump_3           8/28/2015  15:10      1.181799772390622
pump_3           8/28/2015  15:20      1.210477127614729
pump_3           8/28/2015  15:30      1.283900673121791
pump_3           8/28/2015  15:40      1.4257322316016732
;
pump_4           8/28/2015  08:10      1.8210664576232412
pump_4           8/28/2015  08:20      2.0622850524597114
pump_4           8/28/2015  08:30      1.8521274086974837
pump_4           8/28/2015  08:40      1.8358223174253707
pump_4           8/28/2015  08:50      2.0010307232644724
pump_4           8/28/2015  09:00      1.951115869707802
pump_4           8/28/2015  09:10      1.8759300269822319
pump_4           8/28/2015  09:20      2.1611951417215765
pump_4           8/28/2015  09:30      1.879440981233123
pump_4           8/28/2015  09:40      1.8893833155971014
pump_4           8/28/2015  09:50      1.8007898941635823
pump_4           8/28/2015  10:00      1.809713911674204
pump_4           8/28/2015  10:10      1.967712639039036
pump_4           8/28/2015  10:20      1.7747372781193862
pump_4           8/28/2015  10:30      1.852629276082728
pump_4           8/28/2015  10:40      1.8807845122917115
pump_4           8/28/2015  10:50      1.993589205772031
pump_4           8/28/2015  11:00      2.0887177021937227