[TITLE]
;;Project Title/Notes

[OPTIONS]
;;Option             Value
FLOW_UNITS           CMS
INFILTRATION         HORTON
FLOW_ROUTING         DYNWAVE
LINK_OFFSETS         DEPTH
MIN_SLOPE            0
ALLOW_PONDING        YES
SKIP_STEADY_STATE    NO

START_DATE           08/28/2015
START_TIME           08:00
REPORT_START_DATE    08/28/2015
REPORT_START_TIME    08:00
END_DATE             08/28/2015
END_TIME             15:50
SWEEP_START          01/01
SWEEP_END            12/31
DRY_DAYS             0
REPORT_STEP          00:01:00
WET_STEP             00:01:00
DRY_STEP             00:01:00
ROUTING_STEP         0:00:05 
RULE_STEP            00:00:00

INERTIAL_DAMPING     PARTIAL
NORMAL_FLOW_LIMITED  BOTH
FORCE_MAIN_EQUATION  H-W
VARIABLE_STEP        0.75
LENGTHENING_STEP     0
MIN_SURFAREA         1.167
MAX_TRIALS           8
HEAD_TOLERANCE       0.0015
SYS_FLOW_TOL         5
LAT_FLOW_TOL         5
MINIMUM_STEP         0.5
THREADS              1

[EVAPORATION]
;;Data Source    Parameters
;;-------------- ----------------
CONSTANT         0.0
DRY_ONLY         NO

[RAINGAGES]
;;Name           Format    Interval SCF      Source    
;;-------------- --------- ------ ------ ----------
RG1              INTENSITY 0:01     1.0      TIMESERIES Oneyear-2h      
RG2              INTENSITY 0:01     1.0      TIMESERIES Oneyear-2h      
RG3              INTENSITY 0:01     1.0      TIMESERIES Oneyear-2h      
RG4              INTENSITY 0:01     1.0      TIMESERIES Oneyear-2h      

[SUBCATCHMENTS]
;;Name           Rain Gage        Outlet           Area     %Imperv  Width    %Slope   CurbLen  SnowPack        
;;-------------- ---------------- ---------------- -------- -------- -------- -------- -------- ----------------
SC01             RG4              J16              33       100      2400     0.8      0.0                      
SC02             RG3              J13              22.75    100      1500     0.8      0                        
SC03             RG1              J10              18       100      2000     0.5      0                        
SC04             RG3              J5               6.9      100      200      0.7      0                        
SC05             RG4              J1               15.6     100      1000     0.5      0                        
SC06             RG2              J8               32.55    100      985      0.5      0                        
SC07             RG3              CSO7             4.75     100      360      0.51     0                        
SC08             RG1              CSO8             28       100      1950     0.45     0                        
SC09             RG2              CSO9             6.9      100      650      0.4      0                        
SC010            RG4              CSO10            11.75    100      650      0.5      0                        

[SUBAREAS]
;;Subcatchment   N-Imperv   N-Perv     S-Imperv   S-Perv     PctZero    RouteTo    PctRouted 
;;-------------- ---------- ---------- ---------- ---------- ---------- ---------- ----------
SC01             0.009      0.10       0.05       0.05       0.0        OUTLET    
SC02             0.009      0.1        0.05       0.05       0          OUTLET    
SC03             0.007      0.1        0.05       0.05       0          OUTLET    
SC04             0.009      0.1        0.05       0.05       0          OUTLET    
SC05             0.007      0.1        0.05       0.05       0          OUTLET    
SC06             0.01       0.1        0.05       0.05       0          OUTLET    
SC07             0.02       0.1        0.05       0.05       0          OUTLET    
SC08             0.01       0.1        0.05       0.05       0          OUTLET    
SC09             0.016      0.1        0.05       0.05       0          OUTLET    
SC010            0.008      0.1        0.05       0.05       0          OUTLET    

[INFILTRATION]
;;Subcatchment   MaxRate    MinRate    Decay      DryTime    MaxInfil  
;;-------------- ---------- ---------- ---------- ---------- ----------
SC01             3.0        0.5        4          7          0         
SC02             3.0        0.5        4          7          0         
SC03             3.0        0.5        4          7          0         
SC04             3.0        0.5        4          7          0         
SC05             3.0        0.5        4          7          0         
SC06             3.0        0.5        4          7          0         
SC07             3.0        0.5        4          7          0         
SC08             3.0        0.5        4          7          0         
SC09             3.0        0.5        4          7          0         
SC010            3.0        0.5        4          7          0         

[JUNCTIONS]
;;Name           Elevation  MaxDepth   InitDepth  SurDepth   Aponded   
;;-------------- ---------- ---------- ---------- ---------- ----------
J1               34.000000  2          0.000000   05.000000  0.000000  
J3               18.000000  2          0.000000   0.000000   0.000000  
CSO7             34.00000   1.2        0.000000   0.000000   0.000     
J5               32.00000   2.000000   0.000000   0.000000   0.000000  
CSO9             40.000000  2          0.000000   0.000000   0.000000  
J8               36.000000  3.000000   0.000000   0.000000   0.000000  
CSO8             32.000000  2          0.000000   0.00000    0.00000   
J10              29.000000  2.000000   0.000000   0.000000   0.000000  
J13              29.000000  2.000000   0.000000   0.000000   0.000000  
J15              15.000000  3.000000   0.000000   0.000000   0.000000  
J16              30.000000  2.000000   0.000000   0.000000   0.000000  
CSO10            30.000000  1.00000    0.000000   0.000000   0.000000  
J12              26.000000  2.000000   0.000000   0.000000   0.000000  
J4               33         2.0        0.00000    0.00000    0.00000   
J6               25         2          0.0000     0.0000     0.0000    
J2               25         2          0.00000    0.00000    0.00000   
J19              8          2          0.0000     0.0000     0.0000    
J9               29         2          0.0000     0.0000     0.0000    
J14              20         2          0.0000     0.0000     0.0000    
J17              20         2          0.0000     0.0000     0.0000    
J7               39         2          0.00000    0.00000    0.00000   
J11              31         2          0.0000     0.0000     0.0000    
J18              29         2          0.0000     0.0000     0.0000    

[OUTFALLS]
;;Name           Elevation  Type       Stage Data       Gated    Route To        
;;-------------- ---------- ---------- ---------------- -------- ----------------
Out_to_WWTP      6          FREE                        NO                       

[STORAGE]
;;Name           Elev.    MaxDepth   InitDepth  Shape      Curve Name/Params            N/A      Fevap    Psi      Ksat     IMD     
;;-------------- -------- ---------- ----------- ---------- ---------------------------- -------- --------          -------- --------
T5               27.000000 5.000000   0.000000   TABULAR    Tank5                        0.000000 0.000000
T4               27.000000 5.000000   0.000000   TABULAR    Tank4                        0.000000 0.000000
T6               31.000000 5.000000   0.000000   TABULAR    Tank6                        0        0       
T3               22.000000 5.000000   0.000000   TABULAR    Tank3                        0.000000 0.000000
T2               21.000000 5.000000   0.000000   TABULAR    Tank2                        0.000000 0.000000
T1               10.000000 5.000000   0.000000   TABULAR    Tank1                        0.000000 0.000000

[CONDUITS]
;;Name           From Node        To Node          Length     Roughness  InOffset   OutOffset  InitFlow   MaxFlow   
;;-------------- ---------------- ---------------- ---------- ---------- ---------- ---------- ---------- ----------
C1               J2               J3               400        0.013      0.00000    0.00000    0.00000    0         
C6               J4               J5               400        0.01       0.00000    0.00000    0.00000    0         
C2               J6               J3               400        0.012      0.00000    0.00000    0.00000    0         
C9               J7               J8               500        0.013      0.00000    0.00000    0.00000    0         
C16              J11              J10              500        0.012      0.0000     0.0000     0.00000    0         
C3               J14              J3               200        0.012      0.000      0.000      0.00000    0         
C19              J17              J15              400        0.012      0.00000    0.00000    0.00000    0         
C11              J3               J15              200        0.012      0.0000     0.0000     0.00000    0         
C20              J16              J15              400        0.012      0.0000     0.0000     0.00000    0         
C22              J18              J15              500        0.013      0.0000     0.0000     0.00000    0         
C12              J9               J12              500        0.012      0.00000    0.00000    0.00000    0         
C17              J10              J12              200        0.012      0.0000     0.0000     0.00000    0         
C10              J8               T6               310.5      0.012      0.00000    0.00000    0.00000    0         
C13              J12              T3               375        0.012      0          0          0.00000    0         
C18              J13              T2               257        0.013      0.0000     0.0000     0.00000    0         
C23              J15              T1               305        0.013      0.0000     0.0000     0.00000    0         
C4               J1               T5               278        0.012      0.0000     0.0000     0.00000    0         
C7               J5               T4               204        0.012      0.00000    0.00000    0.00000    0         
C14              J19              Out_to_WWTP      200        0.011      0.0000     0.0000     0.0000     0         
C5               CSO7             J4               100        0.014      0.0000     0.0000     0.0000     0         
C8               CSO9             J7               100        0.0185     0.0000     0.0000     0.00000    0         
C15              CSO8             J11              100        0.012      0.0000     0.0000     0.0000     0         
C21              CSO10            J18              100        0.02       0.00000    0.00000    0.00000    0         

[ORIFICES]
;;Name           From Node        To Node          Type         Offset     Qcoeff     Gated    CloseTime 
;;-------------- ---------------- ---------------- ------------ ---------- ---------- -------- ----------
V4               T4               J6               SIDE         0.00000    1          NO       0         
V5               T5               J2               SIDE         0.0000     1          NO       0         
V1               T1               J19              SIDE         0.00000    1          NO       0         
V6               T6               J9               SIDE         0.0000     1          NO       0         
V3               T3               J14              SIDE         0.0000     1          NO       0         
V2               T2               J17              SIDE         0.0000     1          NO       0         

[XSECTIONS]
;;Link           Shape        Geom1            Geom2      Geom3      Geom4      Barrels    Culvert   
;;-------------- ------------ ---------------- ---------- ---------- ---------- ---------- ----------
C1               CIRCULAR     1                0          0          0          1                    
C6               CIRCULAR     0.3              0          0          0          1                    
C2               CIRCULAR     0.6              0          0          0          1                    
C9               CIRCULAR     0.5              0          0          0          1                    
C16              CIRCULAR     2                0          0          0          1                    
C3               CIRCULAR     1                0          0          0          1                    
C19              CIRCULAR     1                0          0          0          1                    
C11              CIRCULAR     2                0          0          0          1                    
C20              CIRCULAR     2                0          0          0          1                    
C22              CIRCULAR     0.8              0          0          0          1                    
C12              CIRCULAR     2                0          0          0          1                    
C17              CIRCULAR     2                0          0          0          1                    
C10              CIRCULAR     1.5              0          0          0          1                    
C13              CIRCULAR     2                0          0          0          1                    
C18              CIRCULAR     2                0          0          0          1                    
C23              CIRCULAR     1.5              0          0          0          1                    
C4               CIRCULAR     1                0          0          0          1                    
C7               CIRCULAR     1                0          0          0          1                    
C14              CIRCULAR     2                0          0          0          1                    
C5               CIRCULAR     0.2555           0          0          0          1                    
C8               CIRCULAR     0.318            0          0          0          1                    
C15              CIRCULAR     0.453            0          0          0          1                    
C21              CIRCULAR     0.44             0          0          0          1                    
V4               RECT_CLOSED  0.0264           0.3048     0          0
V5               RECT_CLOSED  0.013            0.3048     0          0
V1               RECT_CLOSED  0.09             0.3048     0          0
V6               RECT_CLOSED  0.0581           0.3048     0          0
V3               RECT_CLOSED  0.063            0.3048     0          0
V2               RECT_CLOSED  0.0465           0.3048     0          0

[LOSSES]
;;Link           Kentry     Kexit      Kavg       Flap Gate  Seepage   
;;-------------- ---------- ---------- ---------- ---------- ----------
C1               0.00000    0.00000    0.00000    NO         0.00000   
C6               0.00000    0.00000    0.00000    NO         0.00000   
C2               0.00000    0.00000    0.00000    NO         0.00000   
C9               0.00000    0.00000    0.00000    NO         0.00000   
C16              0.00000    0.00000    0.00000    NO         0         
C3               0.00000    0.00000    0.00000    NO         0         
C19              0.00000    0.00000    0.00000    NO         0.00000   
C11              0.00000    0.00000    0.00000    NO         0.00000   
C20              0.00000    0.00000    0.00000    NO         0.0000    
C22              0.00000    0.00000    0.00000    NO         0.0000    
C12              0.00000    0.00000    0.00000    NO         0.00000   
C17              0.00000    0.00000    0.00000    NO         0.0000    
C10              0.00000    0.00000    0.00000    NO         0.00000   
C13              0.00000    0.00000    0.00000    NO         0         
C18              0.00000    0.00000    0.00000    NO         0.0000    
C23              0.00000    0.00000    0.00000    NO         0.0000    
C4               0.00000    0.00000    0.00000    NO         0.00000   
C7               0.00000    0.00000    0.00000    NO         0.00000   
C14              0.0000     0.0000     0.0000     NO         0.0000    
C5               0.00000    0.00000    0.00000    NO         0.00000   
C8               0.00000    0.00000    0.00000    NO         0.00000   
C15              0.0000     0.0000     0.0000     NO         0.0000    
C21              0.00000    0.00000    0.00000    NO         0.00000   

[CONTROLS]
RULE R0
IF SIMULATION TIME > 0
THEN ORIFICE V1 SETTING = TIMESERIES pump_0

RULE R1
IF SIMULATION TIME > 0
THEN ORIFICE V2 SETTING = TIMESERIES pump_1

RULE R2
IF SIMULATION TIME > 0
THEN ORIFICE V3 SETTING = TIMESERIES pump_2

RULE R3
IF SIMULATION TIME > 0
THEN ORIFICE V4 SETTING = TIMESERIES pump_3

RULE R4
IF SIMULATION TIME > 0
THEN ORIFICE V5 SETTING = TIMESERIES pump_4

RULE R5
IF SIMULATION TIME > 0
THEN ORIFICE V6 SETTING = TIMESERIES pump_5



[DWF]
;;Node           Constituent      Baseline   Patterns  
;;-------------- ---------------- ---------- ----------
J1               FLOW             0.01269    "" "DWF"
CSO7             FLOW             0.00656    "" "DWF"
J5               FLOW             0.00288    "" "DWF"
CSO9             FLOW             0.00443    "" "DWF"
J8               FLOW             0.02126    "" "DWF"
CSO8             FLOW             0.00518    "DWFCommercial0"
J10              FLOW             0.00871    "" "DWF"
J13              FLOW             0.01056    "" "DWF"
J16              FLOW             0.01251    "" "DWF"
CSO10            FLOW             0.00314    "" "DWF"

[CURVES]
;;Name           Type       X-Value    Y-Value   
;;-------------- ---------- ---------- ----------
Tank1            Storage    0          140       
Tank1                       5          140       
;
Tank2            Storage    0          200       
Tank2                       5          200       
;
Tank3            Storage    0          520       
Tank3                       5          520       
;
Tank4            Storage    0          100       
Tank4                       5          100       
;
Tank5            Storage    0          100       
Tank5                       5          100       
;
Tank6            Storage    0          120       
Tank6                       5          120       

[TIMESERIES]
;;Name           Date       Time       Value     
;;-------------- ---------- ---------- ----------
pump_0           8/28/2015  08:10      2.0132407432136796
pump_0           8/28/2015  08:20      1.9305578327773294
pump_0           8/28/2015  08:30      1.911200606405857
pump_0           8/28/2015  08:40      1.9592529210930998
pump_0           8/28/2015  08:50      1.9784400504381676
pump_0           8/28/2015  09:00      1.8179757181221572
pump_0           8/28/2015  09:10      1.8590596057430073
pump_0           8/28/2015  09:20      1.7418747196914057
pump_0           8/28/2015  09:30      1.8544755168387348
pump_0           8/28/2015  09:40      1.9704824492604445
pump_0           8/28/2015  09:50      1.8417653999456816
pump_0           8/28/2015  10:00      1.835657533123162
pump_0           8/28/2015  10:10      1.9537078558845435
pump_0           8/28/2015  10:20      2.0699449114700768
pump_0           8/28/2015  10:30      1.9792221393185883
pump_0           8/28/2015  10:40      1.8565329256794663
pump_0           8/28/2015  10:50      1.773857656626808
pump_0           8/28/2015  11:00      2.180617956963784
pump_0           8/28/2015  11:10      1.838990315305323
pump_0           8/28/2015  11:20      1.9044000504057268
pump_0           8/28/2015  11:30      1.9831087411570478
pump_0           8/28/2015  11:40      1.8372874325756499
pump_0           8/28/2015  11:50      2.029468720630417
pump_0           8/28/2015  12:00      1.9668508838044216
pump_0           8/28/2015  12:10      1.9373482937601243
pump_0           8/28/2015  12:20      1.978814326596491
pump_0           8/28/2015  12:30      1.873468388999211
pump_0           8/28/2015  12:40      1.973365014564056
pump_0           8/28/2015  12:50      1.8325272237540986
pump_0           8/28/2015  13:00      1.9444339017621408
pump_0           8/28/2015  13:10      2.0367463648636246
pump_0           8/28/2015  13:20      1.7388770813735355
pump_0           8/28/2015  13:30      1.8803835899669998
pump_0           8/28/2015  13:40      1.945958860235396
pump_0           8/28/2015  13:50      1.8176342084804031
pump_0           8/28/2015  14:00      1.742926342794786
pump_0           8/28/2015  14:10      2.13246168302069
pump_0           8/28/2015  14:20      2.1284829951270137
pump_0           8/28/2015  14:30      1.7638087356725491
pump_0           8/28/2015  14:40      1.8086183680676133
pump_0           8/28/2015  14:50      1.9318616051419593
pump_0           8/28/2015  15:00      1.9186350215712213
pump_0           8/28/2015  15:10      1.8112534344511069
pump_0           8/28/2015  15:20      1.767870941156887
pump_0           8/28/2015  15:30      1.9284284794218824
pump_0           8/28/2015  15:40      1.8320908167225203
;
pump_1           8/28/2015  08:10      1.2498407432136798
pump_1           8/28/2015  08:20      1.1671578327773293
pump_1           8/28/2015  08:30      1.147800606405857
pump_1           8/28/2015  08:40      1.1958529210930997
pump_1           8/28/2015  08:50      1.2150400504381675
pump_1           8/28/2015  09:00      1.0545757181221571
pump_1           8/28/2015  09:10      1.0956596057430072
pump_1           8/28/2015  09:20      0.9784747196914058
pump_1           8/28/2015  09:30      0.9619755168387348
pump_1           8/28/2015  09:40      1.0779824492604444
pump_1           8/28/2015  09:50      0.9492653999456815
pump_1           8/28/2015  10:00      0.943157533123162
pump_1           8/28/2015  10:10      1.0612078558845435
pump_1           8/28/2015  10:20      1.1774449114700765
pump_1           8/28/2015  10:30      1.0867221393185882
pump_1           8/28/2015  10:40      0.9640329256794663
pump_1           8/28/2015  10:50      1.0104576566268082
pump_1           8/28/2015  11:00      1.417217956963784
pump_1           8/28/2015  11:10      1.075590315305323
pump_1           8/28/2015  11:20      1.1410000504057267
pump_1           8/28/2015  11:30      1.2197087411570477
pump_1           8/28/2015  11:40      1.0738874325756498
pump_1           8/28/2015  11:50      1.266068720630417
pump_1           8/28/2015  12:00      1.2034508838044216
pump_1           8/28/2015  12:10      1.1739482937601242
pump_1           8/28/2015  12:20      1.215414326596491
pump_1           8/28/2015  12:30      1.110068388999211
pump_1           8/28/2015  12:40      1.209965014564056
pump_1           8/28/2015  12:50      1.0691272237540985
pump_1           8/28/2015  13:00      1.1810339017621407
pump_1           8/28/2015  13:10      1.2733463648636247
pump_1           8/28/2015  13:20      0.9754770813735356
pump_1           8/28/2015  13:30      1.1169835899669998
pump_1           8/28/2015  13:40      1.182558860235396
pump_1           8/28/2015  13:50      1.0542342084804033
pump_1           8/28/2015  14:00      0.979526342794786
pump_1           8/28/2015  14:10      1.36906168302069
pump_1           8/28/2015  14:20      1.3650829951270134
pump_1           8/28/2015  14:30      1.000408735672549
pump_1           8/28/2015  14:40      1.0452183680676133
pump_1           8/28/2015  14:50      1.1684616051419592
pump_1           8/28/2015  15:00      1.1552350215712213
pump_1           8/28/2015  15:10      1.0478534344511068
pump_1           8/28/2015  15:20      1.004470941156887
pump_1           8/28/2015  15:30      1.1650284794218824
pump_1           8/28/2015  15:40      1.0686908167225204
;
pump_2           8/28/2015  08:10      1.66404074321368
pump_2           8/28/2015  08:20      1.5813578327773294
pump_2           8/28/2015  08:30      1.562000606405857
pump_2           8/28/2015  08:40      1.6100529210930996
pump_2           8/28/2015  08:50      1.2943400504381677
pump_2           8/28/2015  09:00      1.1338757181221573
pump_2           8/28/2015  09:10      1.1749596057430074
pump_2           8/28/2015  09:20      1.0577747196914058
pump_2           8/28/2015  09:30      1.5052755168387348
pump_2           8/28/2015  09:40      1.6212824492604443
pump_2           8/28/2015  09:50      1.4925653999456814
pump_2           8/28/2015  10:00      1.486457533123162
pump_2           8/28/2015  10:10      1.6045078558845436
pump_2           8/28/2015  10:20      1.7207449114700766
pump_2           8/28/2015  10:30      1.6300221393185883
pump_2           8/28/2015  10:40      1.5073329256794663
pump_2           8/28/2015  10:50      1.0897576566268081
pump_2           8/28/2015  11:00      1.496517956963784
pump_2           8/28/2015  11:10      1.154890315305323
pump_2           8/28/2015  11:20      1.2203000504057269
pump_2           8/28/2015  11:30      1.299008741157048
pump_2           8/28/2015  11:40      1.15318743257565
pump_2           8/28/2015  11:50      1.3453687206304172
pump_2           8/28/2015  12:00      1.2827508838044217
pump_2           8/28/2015  12:10      1.2532482937601244
pump_2           8/28/2015  12:20      1.294714326596491
pump_2           8/28/2015  12:30      1.189368388999211
pump_2           8/28/2015  12:40      1.289265014564056
pump_2           8/28/2015  12:50      1.1484272237540984
pump_2           8/28/2015  13:00      1.2603339017621409
pump_2           8/28/2015  13:10      1.3526463648636249
pump_2           8/28/2015  13:20      1.0547770813735355
pump_2           8/28/2015  13:30      1.1962835899669997
pump_2           8/28/2015  13:40      1.2618588602353962
pump_2           8/28/2015  13:50      1.1335342084804032
pump_2           8/28/2015  14:00      1.058826342794786
pump_2           8/28/2015  14:10      1.7832616830206902
pump_2           8/28/2015  14:20      1.7792829951270135
pump_2           8/28/2015  14:30      1.4146087356725492
pump_2           8/28/2015  14:40      1.4594183680676134
pump_2           8/28/2015  14:50      1.5826616051419593
pump_2           8/28/2015  15:00      1.5694350215712214
pump_2           8/28/2015  15:10      1.462053434451107
pump_2           8/28/2015  15:20      1.4186709411568872
pump_2           8/28/2015  15:30      1.5792284794218825
pump_2           8/28/2015  15:40      1.4828908167225205
;
pump_3           8/28/2015  08:10      1.2026407432136799
pump_3           8/28/2015  08:20      1.1199578327773294
pump_3           8/28/2015  08:30      1.100600606405857
pump_3           8/28/2015  08:40      1.1486529210930998
pump_3           8/28/2015  08:50      1.1678400504381676
pump_3           8/28/2015  09:00      1.0073757181221572
pump_3           8/28/2015  09:10      1.0484596057430073
pump_3           8/28/2015  09:20      0.9312747196914057
pump_3           8/28/2015  09:30      1.0438755168387348
pump_3           8/28/2015  09:40      1.1598824492604445
pump_3           8/28/2015  09:50      1.0311653999456816
pump_3           8/28/2015  10:00      1.025057533123162
pump_3           8/28/2015  10:10      1.1431078558845436
pump_3           8/28/2015  10:20      1.2593449114700765
pump_3           8/28/2015  10:30      1.1686221393185883
pump_3           8/28/2015  10:40      1.0459329256794663
pump_3           8/28/2015  10:50      0.9632576566268082
pump_3           8/28/2015  11:00      1.370017956963784
pump_3           8/28/2015  11:10      1.028390315305323
pump_3           8/28/2015  11:20      1.2567000504057269
pump_3           8/28/2015  11:30      1.3354087411570479
pump_3           8/28/2015  11:40      1.18958743257565
pump_3           8/28/2015  11:50      1.3817687206304172
pump_3           8/28/2015  12:00      1.3191508838044217
pump_3           8/28/2015  12:10      1.2896482937601244
pump_3           8/28/2015  12:20      1.331114326596491
pump_3           8/28/2015  12:30      1.225768388999211
pump_3           8/28/2015  12:40      1.325665014564056
pump_3           8/28/2015  12:50      1.1848272237540984
pump_3           8/28/2015  13:00      1.2967339017621409
pump_3           8/28/2015  13:10      1.3890463648636249
pump_3           8/28/2015  13:20      1.0911770813735355
pump_3           8/28/2015  13:30      1.2326835899669997
pump_3           8/28/2015  13:40      1.2982588602353962
pump_3           8/28/2015  13:50      1.1699342084804032
pump_3           8/28/2015  14:00      1.095226342794786
pump_3           8/28/2015  14:10      1.3218616830206902
pump_3           8/28/2015  14:20      1.3178829951270135
pump_3           8/28/2015  14:30      0.9532087356725492
pump_3           8/28/2015  14:40      0.9980183680676133
pump_3           8/28/2015  14:50      1.1212616051419593
pump_3           8/28/2015  15:00      1.1080350215712214
pump_3           8/28/2015  15:10      1.0006534344511069
pump_3           8/28/2015  15:20      0.957270941156887
pump_3           8/28/2015  15:30      1.1178284794218825
pump_3           8/28/2015  15:40      1.0214908167225203
;
pump_4           8/28/2015  08:10      2.0132407432136796
pump_4           8/28/2015  08:20      1.9305578327773294
pump_4           8/28/2015  08:30      1.911200606405857
pump_4           8/28/2015  08:40      1.9592529210930998
pump_4           8/28/2015  08:50      1.9784400504381676
pump_4           8/28/2015  09:00      1.8179757181221572
pump_4           8/28/2015  09:10      1.8590596057430073
pump_4           8/28/2015  09:20      1.7418747196914057
pump_4           8/28/2015  09:30      1.8544755168387348
pump_4           8/28/2015  09:40      1.9704824492604445
pump_4           8/28/2015  09:50      1.8417653999456816
pump_4           8/28/2015  10:00      1.835657533123162
pump_4           8/28/2015  10:10      1.9537078558845435
pump_4           8/28/2015  10:20      2.0699449114700768
pump_4           8/28/2015  10:30      1.9792221393185883
pump_4           8/28/2015  10:40      1.8565329256794663
pump_4           8/28/2015  10:50      1.773857656626808
pump_4           8/28/2015  11:00      2.180617956963784