[TITLE]
;;Project Title/Notes

[OPTIONS]
;;Option             Value
FLOW_UNITS           CMS
INFILTRATION         HORTON
FLOW_ROUTING         DYNWAVE
LINK_OFFSETS         DEPTH
MIN_SLOPE            0
ALLOW_PONDING        YES
SKIP_STEADY_STATE    NO

START_DATE           08/28/2015
START_TIME           08:00
REPORT_START_DATE    08/28/2015
REPORT_START_TIME    08:00
END_DATE             08/28/2015
END_TIME             15:50
SWEEP_START          01/01
SWEEP_END            12/31
DRY_DAYS             0
REPORT_STEP          00:01:00
WET_STEP             00:01:00
DRY_STEP             00:01:00
ROUTING_STEP         0:00:05 
RULE_STEP            00:00:00

INERTIAL_DAMPING     PARTIAL
NORMAL_FLOW_LIMITED  BOTH
FORCE_MAIN_EQUATION  H-W
VARIABLE_STEP        0.75
LENGTHENING_STEP     0
MIN_SURFAREA         1.167
MAX_TRIALS           8
HEAD_TOLERANCE       0.0015
SYS_FLOW_TOL         5
LAT_FLOW_TOL         5
MINIMUM_STEP         0.5
THREADS              1

[EVAPORATION]
;;Data Source    Parameters
;;-------------- ----------------
CONSTANT         0.0
DRY_ONLY         NO

[RAINGAGES]
;;Name           Format    Interval SCF      Source    
;;-------------- --------- ------ ------ ----------
RG1              INTENSITY 0:01     1.0      TIMESERIES Oneyear-2h      
RG2              INTENSITY 0:01     1.0      TIMESERIES Oneyear-2h      
RG3              INTENSITY 0:01     1.0      TIMESERIES Oneyear-2h      
RG4              INTENSITY 0:01     1.0      TIMESERIES Oneyear-2h      

[SUBCATCHMENTS]
;;Name           Rain Gage        Outlet           Area     %Imperv  Width    %Slope   CurbLen  SnowPack        
;;-------------- ---------------- ---------------- -------- -------- -------- -------- -------- ----------------
SC01             RG4              J16              33       100      2400     0.8      0.0                      
SC02             RG3              J13              22.75    100      1500     0.8      0                        
SC03             RG1              J10              18       100      2000     0.5      0                        
SC04             RG3              J5               6.9      100      200      0.7      0                        
SC05             RG4              J1               15.6     100      1000     0.5      0                        
SC06             RG2              J8               32.55    100      985      0.5      0                        
SC07             RG3              CSO7             4.75     100      360      0.51     0                        
SC08             RG1              CSO8             28       100      1950     0.45     0                        
SC09             RG2              CSO9             6.9      100      650      0.4      0                        
SC010            RG4              CSO10            11.75    100      650      0.5      0                        

[SUBAREAS]
;;Subcatchment   N-Imperv   N-Perv     S-Imperv   S-Perv     PctZero    RouteTo    PctRouted 
;;-------------- ---------- ---------- ---------- ---------- ---------- ---------- ----------
SC01             0.009      0.10       0.05       0.05       0.0        OUTLET    
SC02             0.009      0.1        0.05       0.05       0          OUTLET    
SC03             0.007      0.1        0.05       0.05       0          OUTLET    
SC04             0.009      0.1        0.05       0.05       0          OUTLET    
SC05             0.007      0.1        0.05       0.05       0          OUTLET    
SC06             0.01       0.1        0.05       0.05       0          OUTLET    
SC07             0.02       0.1        0.05       0.05       0          OUTLET    
SC08             0.01       0.1        0.05       0.05       0          OUTLET    
SC09             0.016      0.1        0.05       0.05       0          OUTLET    
SC010            0.008      0.1        0.05       0.05       0          OUTLET    

[INFILTRATION]
;;Subcatchment   MaxRate    MinRate    Decay      DryTime    MaxInfil  
;;-------------- ---------- ---------- ---------- ---------- ----------
SC01             3.0        0.5        4          7          0         
SC02             3.0        0.5        4          7          0         
SC03             3.0        0.5        4          7          0         
SC04             3.0        0.5        4          7          0         
SC05             3.0        0.5        4          7          0         
SC06             3.0        0.5        4          7          0         
SC07             3.0        0.5        4          7          0         
SC08             3.0        0.5        4          7          0         
SC09             3.0        0.5        4          7          0         
SC010            3.0        0.5        4          7          0         

[JUNCTIONS]
;;Name           Elevation  MaxDepth   InitDepth  SurDepth   Aponded   
;;-------------- ---------- ---------- ---------- ---------- ----------
J1               34.000000  2          0.000000   05.000000  0.000000  
J3               18.000000  2          0.000000   0.000000   0.000000  
CSO7             34.00000   1.2        0.000000   0.000000   0.000     
J5               32.00000   2.000000   0.000000   0.000000   0.000000  
CSO9             40.000000  2          0.000000   0.000000   0.000000  
J8               36.000000  3.000000   0.000000   0.000000   0.000000  
CSO8             32.000000  2          0.000000   0.00000    0.00000   
J10              29.000000  2.000000   0.000000   0.000000   0.000000  
J13              29.000000  2.000000   0.000000   0.000000   0.000000  
J15              15.000000  3.000000   0.000000   0.000000   0.000000  
J16              30.000000  2.000000   0.000000   0.000000   0.000000  
CSO10            30.000000  1.00000    0.000000   0.000000   0.000000  
J12              26.000000  2.000000   0.000000   0.000000   0.000000  
J4               33         2.0        0.00000    0.00000    0.00000   
J6               25         2          0.0000     0.0000     0.0000    
J2               25         2          0.00000    0.00000    0.00000   
J19              8          2          0.0000     0.0000     0.0000    
J9               29         2          0.0000     0.0000     0.0000    
J14              20         2          0.0000     0.0000     0.0000    
J17              20         2          0.0000     0.0000     0.0000    
J7               39         2          0.00000    0.00000    0.00000   
J11              31         2          0.0000     0.0000     0.0000    
J18              29         2          0.0000     0.0000     0.0000    

[OUTFALLS]
;;Name           Elevation  Type       Stage Data       Gated    Route To        
;;-------------- ---------- ---------- ---------------- -------- ----------------
Out_to_WWTP      6          FREE                        NO                       

[STORAGE]
;;Name           Elev.    MaxDepth   InitDepth  Shape      Curve Name/Params            N/A      Fevap    Psi      Ksat     IMD     
;;-------------- -------- ---------- ----------- ---------- ---------------------------- -------- --------          -------- --------
T5               27.000000 5.000000   0.000000   TABULAR    Tank5                        0.000000 0.000000
T4               27.000000 5.000000   0.000000   TABULAR    Tank4                        0.000000 0.000000
T6               31.000000 5.000000   0.000000   TABULAR    Tank6                        0        0       
T3               22.000000 5.000000   0.000000   TABULAR    Tank3                        0.000000 0.000000
T2               21.000000 5.000000   0.000000   TABULAR    Tank2                        0.000000 0.000000
T1               10.000000 5.000000   0.000000   TABULAR    Tank1                        0.000000 0.000000

[CONDUITS]
;;Name           From Node        To Node          Length     Roughness  InOffset   OutOffset  InitFlow   MaxFlow   
;;-------------- ---------------- ---------------- ---------- ---------- ---------- ---------- ---------- ----------
C1               J2               J3               400        0.013      0.00000    0.00000    0.00000    0         
C6               J4               J5               400        0.01       0.00000    0.00000    0.00000    0         
C2               J6               J3               400        0.012      0.00000    0.00000    0.00000    0         
C9               J7               J8               500        0.013      0.00000    0.00000    0.00000    0         
C16              J11              J10              500        0.012      0.0000     0.0000     0.00000    0         
C3               J14              J3               200        0.012      0.000      0.000      0.00000    0         
C19              J17              J15              400        0.012      0.00000    0.00000    0.00000    0         
C11              J3               J15              200        0.012      0.0000     0.0000     0.00000    0         
C20              J16              J15              400        0.012      0.0000     0.0000     0.00000    0         
C22              J18              J15              500        0.013      0.0000     0.0000     0.00000    0         
C12              J9               J12              500        0.012      0.00000    0.00000    0.00000    0         
C17              J10              J12              200        0.012      0.0000     0.0000     0.00000    0         
C10              J8               T6               310.5      0.012      0.00000    0.00000    0.00000    0         
C13              J12              T3               375        0.012      0          0          0.00000    0         
C18              J13              T2               257        0.013      0.0000     0.0000     0.00000    0         
C23              J15              T1               305        0.013      0.0000     0.0000     0.00000    0         
C4               J1               T5               278        0.012      0.0000     0.0000     0.00000    0         
C7               J5               T4               204        0.012      0.00000    0.00000    0.00000    0         
C14              J19              Out_to_WWTP      200        0.011      0.0000     0.0000     0.0000     0         
C5               CSO7             J4               100        0.014      0.0000     0.0000     0.0000     0         
C8               CSO9             J7               100        0.0185     0.0000     0.0000     0.00000    0         
C15              CSO8             J11              100        0.012      0.0000     0.0000     0.0000     0         
C21              CSO10            J18              100        0.02       0.00000    0.00000    0.00000    0         

[ORIFICES]
;;Name           From Node        To Node          Type         Offset     Qcoeff     Gated    CloseTime 
;;-------------- ---------------- ---------------- ------------ ---------- ---------- -------- ----------
V4               T4               J6               SIDE         0.00000    1          NO       0         
V5               T5               J2               SIDE         0.0000     1          NO       0         
V1               T1               J19              SIDE         0.00000    1          NO       0         
V6               T6               J9               SIDE         0.0000     1          NO       0         
V3               T3               J14              SIDE         0.0000     1          NO       0         
V2               T2               J17              SIDE         0.0000     1          NO       0         

[XSECTIONS]
;;Link           Shape        Geom1            Geom2      Geom3      Geom4      Barrels    Culvert   
;;-------------- ------------ ---------------- ---------- ---------- ---------- ---------- ----------
C1               CIRCULAR     1                0          0          0          1                    
C6               CIRCULAR     0.3              0          0          0          1                    
C2               CIRCULAR     0.6              0          0          0          1                    
C9               CIRCULAR     0.5              0          0          0          1                    
C16              CIRCULAR     2                0          0          0          1                    
C3               CIRCULAR     1                0          0          0          1                    
C19              CIRCULAR     1                0          0          0          1                    
C11              CIRCULAR     2                0          0          0          1                    
C20              CIRCULAR     2                0          0          0          1                    
C22              CIRCULAR     0.8              0          0          0          1                    
C12              CIRCULAR     2                0          0          0          1                    
C17              CIRCULAR     2                0          0          0          1                    
C10              CIRCULAR     1.5              0          0          0          1                    
C13              CIRCULAR     2                0          0          0          1                    
C18              CIRCULAR     2                0          0          0          1                    
C23              CIRCULAR     1.5              0          0          0          1                    
C4               CIRCULAR     1                0          0          0          1                    
C7               CIRCULAR     1                0          0          0          1                    
C14              CIRCULAR     2                0          0          0          1                    
C5               CIRCULAR     0.2555           0          0          0          1                    
C8               CIRCULAR     0.318            0          0          0          1                    
C15              CIRCULAR     0.453            0          0          0          1                    
C21              CIRCULAR     0.44             0          0          0          1                    
V4               RECT_CLOSED  0.0264           0.3048     0          0
V5               RECT_CLOSED  0.013            0.3048     0          0
V1               RECT_CLOSED  0.09             0.3048     0          0
V6               RECT_CLOSED  0.0581           0.3048     0          0
V3               RECT_CLOSED  0.063            0.3048     0          0
V2               RECT_CLOSED  0.0465           0.3048     0          0

[LOSSES]
;;Link           Kentry     Kexit      Kavg       Flap Gate  Seepage   
;;-------------- ---------- ---------- ---------- ---------- ----------
C1               0.00000    0.00000    0.00000    NO         0.00000   
C6               0.00000    0.00000    0.00000    NO         0.00000   
C2               0.00000    0.00000    0.00000    NO         0.00000   
C9               0.00000    0.00000    0.00000    NO         0.00000   
C16              0.00000    0.00000    0.00000    NO         0         
C3               0.00000    0.00000    0.00000    NO         0         
C19              0.00000    0.00000    0.00000    NO         0.00000   
C11              0.00000    0.00000    0.00000    NO         0.00000   
C20              0.00000    0.00000    0.00000    NO         0.0000    
C22              0.00000    0.00000    0.00000    NO         0.0000    
C12              0.00000    0.00000    0.00000    NO         0.00000   
C17              0.00000    0.00000    0.00000    NO         0.0000    
C10              0.00000    0.00000    0.00000    NO         0.00000   
C13              0.00000    0.00000    0.00000    NO         0         
C18              0.00000    0.00000    0.00000    NO         0.0000    
C23              0.00000    0.00000    0.00000    NO         0.0000    
C4               0.00000    0.00000    0.00000    NO         0.00000   
C7               0.00000    0.00000    0.00000    NO         0.00000   
C14              0.0000     0.0000     0.0000     NO         0.0000    
C5               0.00000    0.00000    0.00000    NO         0.00000   
C8               0.00000    0.00000    0.00000    NO         0.00000   
C15              0.0000     0.0000     0.0000     NO         0.0000    
C21              0.00000    0.00000    0.00000    NO         0.00000   

[CONTROLS]
RULE R0
IF SIMULATION TIME > 0
THEN ORIFICE V1 SETTING = TIMESERIES pump_0

RULE R1
IF SIMULATION TIME > 0
THEN ORIFICE V2 SETTING = TIMESERIES pump_1

RULE R2
IF SIMULATION TIME > 0
THEN ORIFICE V3 SETTING = TIMESERIES pump_2

RULE R3
IF SIMULATION TIME > 0
THEN ORIFICE V4 SETTING = TIMESERIES pump_3

RULE R4
IF SIMULATION TIME > 0
THEN ORIFICE V5 SETTING = TIMESERIES pump_4

RULE R5
IF SIMULATION TIME > 0
THEN ORIFICE V6 SETTING = TIMESERIES pump_5



[DWF]
;;Node           Constituent      Baseline   Patterns  
;;-------------- ---------------- ---------- ----------
J1               FLOW             0.01269    "" "DWF"
CSO7             FLOW             0.00656    "" "DWF"
J5               FLOW             0.00288    "" "DWF"
CSO9             FLOW             0.00443    "" "DWF"
J8               FLOW             0.02126    "" "DWF"
CSO8             FLOW             0.00518    "DWFCommercial0"
J10              FLOW             0.00871    "" "DWF"
J13              FLOW             0.01056    "" "DWF"
J16              FLOW             0.01251    "" "DWF"
CSO10            FLOW             0.00314    "" "DWF"

[CURVES]
;;Name           Type       X-Value    Y-Value   
;;-------------- ---------- ---------- ----------
Tank1            Storage    0          140       
Tank1                       5          140       
;
Tank2            Storage    0          200       
Tank2                       5          200       
;
Tank3            Storage    0          520       
Tank3                       5          520       
;
Tank4            Storage    0          100       
Tank4                       5          100       
;
Tank5            Storage    0          100       
Tank5                       5          100       
;
Tank6            Storage    0          120       
Tank6                       5          120       

[TIMESERIES]
;;Name           Date       Time       Value     
;;-------------- ---------- ---------- ----------
pump_0           8/28/2015  08:10      1.8417258191831474
pump_0           8/28/2015  08:20      1.9825219629654183
pump_0           8/28/2015  08:30      1.9888969114889774
pump_0           8/28/2015  08:40      1.982659149659732
pump_0           8/28/2015  08:50      1.8134100107218112
pump_0           8/28/2015  09:00      1.89679259878123
pump_0           8/28/2015  09:10      1.76698612809514
pump_0           8/28/2015  09:20      1.8672281283378993
pump_0           8/28/2015  09:30      1.766639050485161
pump_0           8/28/2015  09:40      2.0016218500877274
pump_0           8/28/2015  09:50      1.834756972085478
pump_0           8/28/2015  10:00      1.9144986905397805
pump_0           8/28/2015  10:10      1.9755781368521914
pump_0           8/28/2015  10:20      1.9472482012145802
pump_0           8/28/2015  10:30      1.8333764035281588
pump_0           8/28/2015  10:40      1.8832418020349426
pump_0           8/28/2015  10:50      2.042955698351691
pump_0           8/28/2015  11:00      1.8721179747153243
pump_0           8/28/2015  11:10      1.6840352889827885
pump_0           8/28/2015  11:20      1.9137071663372374
pump_0           8/28/2015  11:30      1.9913454613980202
pump_0           8/28/2015  11:40      1.9604392279637595
pump_0           8/28/2015  11:50      1.8663496650678388
pump_0           8/28/2015  12:00      2.0463024017035134
pump_0           8/28/2015  12:10      1.8718483516974147
pump_0           8/28/2015  12:20      1.9724467952808014
pump_0           8/28/2015  12:30      1.8856232007609903
pump_0           8/28/2015  12:40      1.9016519135202636
pump_0           8/28/2015  12:50      2.030758290030205
pump_0           8/28/2015  13:00      1.8334540272406712
pump_0           8/28/2015  13:10      1.708804919406656
pump_0           8/28/2015  13:20      1.8863869532056317
pump_0           8/28/2015  13:30      1.9659250780118356
pump_0           8/28/2015  13:40      1.916885348260596
pump_0           8/28/2015  13:50      1.8709308022683473
pump_0           8/28/2015  14:00      1.8472189951749471
pump_0           8/28/2015  14:10      2.014825279768055
pump_0           8/28/2015  14:20      1.9984798940278132
pump_0           8/28/2015  14:30      2.0177368784319842
pump_0           8/28/2015  14:40      2.0030815898396526
pump_0           8/28/2015  14:50      1.8662941244370588
pump_0           8/28/2015  15:00      1.7335038096575843
pump_0           8/28/2015  15:10      1.7642097748581387
pump_0           8/28/2015  15:20      2.0110812513407947
pump_0           8/28/2015  15:30      1.9254188818282976
pump_0           8/28/2015  15:40      1.9901643794852157
;
pump_1           8/28/2015  08:10      1.0783258191831473
pump_1           8/28/2015  08:20      1.2191219629654184
pump_1           8/28/2015  08:30      1.2254969114889773
pump_1           8/28/2015  08:40      1.2192591496597318
pump_1           8/28/2015  08:50      1.050010010721811
pump_1           8/28/2015  09:00      1.13339259878123
pump_1           8/28/2015  09:10      1.0035861280951401
pump_1           8/28/2015  09:20      1.1038281283378992
pump_1           8/28/2015  09:30      1.0032390504851612
pump_1           8/28/2015  09:40      1.2382218500877273
pump_1           8/28/2015  09:50      1.071356972085478
pump_1           8/28/2015  10:00      1.1510986905397804
pump_1           8/28/2015  10:10      1.2121781368521913
pump_1           8/28/2015  10:20      1.1838482012145801
pump_1           8/28/2015  10:30      0.9408764035281587
pump_1           8/28/2015  10:40      0.9907418020349427
pump_1           8/28/2015  10:50      1.2795556983516914
pump_1           8/28/2015  11:00      1.1087179747153244
pump_1           8/28/2015  11:10      0.9206352889827885
pump_1           8/28/2015  11:20      1.1503071663372373
pump_1           8/28/2015  11:30      1.22794546139802
pump_1           8/28/2015  11:40      1.1970392279637594
pump_1           8/28/2015  11:50      1.1029496650678388
pump_1           8/28/2015  12:00      1.2829024017035133
pump_1           8/28/2015  12:10      1.1084483516974148
pump_1           8/28/2015  12:20      1.2090467952808013
pump_1           8/28/2015  12:30      1.1222232007609905
pump_1           8/28/2015  12:40      1.1382519135202638
pump_1           8/28/2015  12:50      1.2673582900302045
pump_1           8/28/2015  13:00      1.0700540272406713
pump_1           8/28/2015  13:10      0.945404919406656
pump_1           8/28/2015  13:20      1.1229869532056316
pump_1           8/28/2015  13:30      1.2025250780118355
pump_1           8/28/2015  13:40      1.153485348260596
pump_1           8/28/2015  13:50      1.1075308022683472
pump_1           8/28/2015  14:00      1.0838189951749473
pump_1           8/28/2015  14:10      1.251425279768055
pump_1           8/28/2015  14:20      1.2350798940278132
pump_1           8/28/2015  14:30      1.254336878431984
pump_1           8/28/2015  14:40      1.2396815898396523
pump_1           8/28/2015  14:50      1.1028941244370587
pump_1           8/28/2015  15:00      0.9701038096575844
pump_1           8/28/2015  15:10      1.0008097748581386
pump_1           8/28/2015  15:20      1.2476812513407947
pump_1           8/28/2015  15:30      1.1620188818282977
pump_1           8/28/2015  15:40      1.2267643794852157
;
pump_2           8/28/2015  08:10      1.4925258191831472
pump_2           8/28/2015  08:20      1.6333219629654185
pump_2           8/28/2015  08:30      1.6396969114889774
pump_2           8/28/2015  08:40      1.633459149659732
pump_2           8/28/2015  08:50      1.464210010721811
pump_2           8/28/2015  09:00      1.21269259878123
pump_2           8/28/2015  09:10      1.08288612809514
pump_2           8/28/2015  09:20      1.1831281283378992
pump_2           8/28/2015  09:30      1.082539050485161
pump_2           8/28/2015  09:40      1.3175218500877275
pump_2           8/28/2015  09:50      1.150656972085478
pump_2           8/28/2015  10:00      1.2303986905397806
pump_2           8/28/2015  10:10      1.2914781368521913
pump_2           8/28/2015  10:20      1.2631482012145803
pump_2           8/28/2015  10:30      1.4841764035281586
pump_2           8/28/2015  10:40      1.5340418020349427
pump_2           8/28/2015  10:50      1.3588556983516915
pump_2           8/28/2015  11:00      1.1880179747153243
pump_2           8/28/2015  11:10      0.9999352889827884
pump_2           8/28/2015  11:20      1.2296071663372374
pump_2           8/28/2015  11:30      1.3072454613980202
pump_2           8/28/2015  11:40      1.2763392279637595
pump_2           8/28/2015  11:50      1.182249665067839
pump_2           8/28/2015  12:00      1.3622024017035135
pump_2           8/28/2015  12:10      1.1877483516974148
pump_2           8/28/2015  12:20      1.2883467952808014
pump_2           8/28/2015  12:30      1.2015232007609904
pump_2           8/28/2015  12:40      1.2175519135202637
pump_2           8/28/2015  12:50      1.3466582900302047
pump_2           8/28/2015  13:00      1.1493540272406713
pump_2           8/28/2015  13:10      1.024704919406656
pump_2           8/28/2015  13:20      1.2022869532056315
pump_2           8/28/2015  13:30      1.2818250780118357
pump_2           8/28/2015  13:40      1.232785348260596
pump_2           8/28/2015  13:50      1.1868308022683474
pump_2           8/28/2015  14:00      1.1631189951749472
pump_2           8/28/2015  14:10      1.330725279768055
pump_2           8/28/2015  14:20      1.3143798940278133
pump_2           8/28/2015  14:30      1.333636878431984
pump_2           8/28/2015  14:40      1.3189815898396524
pump_2           8/28/2015  14:50      1.1821941244370586
pump_2           8/28/2015  15:00      1.0494038096575844
pump_2           8/28/2015  15:10      1.0801097748581387
pump_2           8/28/2015  15:20      1.3269812513407948
pump_2           8/28/2015  15:30      1.2413188818282976
pump_2           8/28/2015  15:40      1.3060643794852158
;
pump_3           8/28/2015  08:10      1.0311258191831474
pump_3           8/28/2015  08:20      1.1719219629654183
pump_3           8/28/2015  08:30      1.1782969114889774
pump_3           8/28/2015  08:40      1.172059149659732
pump_3           8/28/2015  08:50      1.0028100107218112
pump_3           8/28/2015  09:00      1.08619259878123
pump_3           8/28/2015  09:10      0.9563861280951401
pump_3           8/28/2015  09:20      1.0566281283378993
pump_3           8/28/2015  09:30      0.9560390504851611
pump_3           8/28/2015  09:40      1.1910218500877274
pump_3           8/28/2015  09:50      1.024156972085478
pump_3           8/28/2015  10:00      1.1038986905397805
pump_3           8/28/2015  10:10      1.1649781368521914
pump_3           8/28/2015  10:20      1.1366482012145802
pump_3           8/28/2015  10:30      1.0227764035281588
pump_3           8/28/2015  10:40      1.0726418020349426
pump_3           8/28/2015  10:50      1.3952556983516915
pump_3           8/28/2015  11:00      1.2244179747153243
pump_3           8/28/2015  11:10      1.0363352889827884
pump_3           8/28/2015  11:20      1.2660071663372374
pump_3           8/28/2015  11:30      1.3436454613980202
pump_3           8/28/2015  11:40      1.3127392279637595
pump_3           8/28/2015  11:50      1.218649665067839
pump_3           8/28/2015  12:00      1.3986024017035135
pump_3           8/28/2015  12:10      1.2241483516974148
pump_3           8/28/2015  12:20      1.3247467952808014
pump_3           8/28/2015  12:30      1.2379232007609904
pump_3           8/28/2015  12:40      1.2539519135202637
pump_3           8/28/2015  12:50      1.3830582900302046
pump_3           8/28/2015  13:00      1.1857540272406712
pump_3           8/28/2015  13:10      1.061104919406656
pump_3           8/28/2015  13:20      1.2386869532056315
pump_3           8/28/2015  13:30      1.3182250780118356
pump_3           8/28/2015  13:40      1.269185348260596
pump_3           8/28/2015  13:50      1.2232308022683474
pump_3           8/28/2015  14:00      1.1995189951749472
pump_3           8/28/2015  14:10      1.367125279768055
pump_3           8/28/2015  14:20      1.3507798940278133
pump_3           8/28/2015  14:30      1.370036878431984
pump_3           8/28/2015  14:40      1.3553815898396524
pump_3           8/28/2015  14:50      1.2185941244370586
pump_3           8/28/2015  15:00      1.0858038096575844
pump_3           8/28/2015  15:10      1.1165097748581387
pump_3           8/28/2015  15:20      1.3633812513407948
pump_3           8/28/2015  15:30      1.2777188818282976
pump_3           8/28/2015  15:40      1.3424643794852158
;
pump_4           8/28/2015  08:10      1.8417258191831474
pump_4           8/28/2015  08:20      1.9825219629654183
pump_4           8/28/2015  08:30      1.9888969114889774
pump_4           8/28/2015  08:40      1.982659149659732
pump_4           8/28/2015  08:50      1.8134100107218112
pump_4           8/28/2015  09:00      1.89679259878123
pump_4           8/28/2015  09:10      1.76698612809514
pump_4           8/28/2015  09:20      1.8672281283378993
pump_4           8/28/2015  09:30      1.766639050485161
pump_4           8/28/2015  09:40      2.0016218500877274
pump_4           8/28/2015  09:50      1.834756972085478
pump_4           8/28/2015  10:00      1.9144986905397805
pump_4           8/28/2015  10:10      1.9755781368521914
pump_4           8/28/2015  10:20      1.9472482012145802
pump_4           8/28/2015  10:30      1.8333764035281588
pump_4           8/28/2015  10:40      1.8832418020349426
pump_4           8/28/2015  10:50      2.042955698351691
pump_4           8/28/2015  11:00      1.8721179747153243