[TITLE]
;;Project Title/Notes

[OPTIONS]
;;Option             Value
FLOW_UNITS           CMS
INFILTRATION         HORTON
FLOW_ROUTING         DYNWAVE
LINK_OFFSETS         DEPTH
MIN_SLOPE            0
ALLOW_PONDING        YES
SKIP_STEADY_STATE    NO

START_DATE           08/28/2015
START_TIME           08:00
REPORT_START_DATE    08/28/2015
REPORT_START_TIME    08:00
END_DATE             08/28/2015
END_TIME             15:50
SWEEP_START          01/01
SWEEP_END            12/31
DRY_DAYS             0
REPORT_STEP          00:01:00
WET_STEP             00:01:00
DRY_STEP             00:01:00
ROUTING_STEP         0:00:05 
RULE_STEP            00:00:00

INERTIAL_DAMPING     PARTIAL
NORMAL_FLOW_LIMITED  BOTH
FORCE_MAIN_EQUATION  H-W
VARIABLE_STEP        0.75
LENGTHENING_STEP     0
MIN_SURFAREA         1.167
MAX_TRIALS           8
HEAD_TOLERANCE       0.0015
SYS_FLOW_TOL         5
LAT_FLOW_TOL         5
MINIMUM_STEP         0.5
THREADS              1

[EVAPORATION]
;;Data Source    Parameters
;;-------------- ----------------
CONSTANT         0.0
DRY_ONLY         NO

[RAINGAGES]
;;Name           Format    Interval SCF      Source    
;;-------------- --------- ------ ------ ----------
RG1              INTENSITY 0:01     1.0      TIMESERIES Oneyear-2h      
RG2              INTENSITY 0:01     1.0      TIMESERIES Oneyear-2h      
RG3              INTENSITY 0:01     1.0      TIMESERIES Oneyear-2h      
RG4              INTENSITY 0:01     1.0      TIMESERIES Oneyear-2h      

[SUBCATCHMENTS]
;;Name           Rain Gage        Outlet           Area     %Imperv  Width    %Slope   CurbLen  SnowPack        
;;-------------- ---------------- ---------------- -------- -------- -------- -------- -------- ----------------
SC01             RG4              J16              33       100      2400     0.8      0.0                      
SC02             RG3              J13              22.75    100      1500     0.8      0                        
SC03             RG1              J10              18       100      2000     0.5      0                        
SC04             RG3              J5               6.9      100      200      0.7      0                        
SC05             RG4              J1               15.6     100      1000     0.5      0                        
SC06             RG2              J8               32.55    100      985      0.5      0                        
SC07             RG3              CSO7             4.75     100      360      0.51     0                        
SC08             RG1              CSO8             28       100      1950     0.45     0                        
SC09             RG2              CSO9             6.9      100      650      0.4      0                        
SC010            RG4              CSO10            11.75    100      650      0.5      0                        

[SUBAREAS]
;;Subcatchment   N-Imperv   N-Perv     S-Imperv   S-Perv     PctZero    RouteTo    PctRouted 
;;-------------- ---------- ---------- ---------- ---------- ---------- ---------- ----------
SC01             0.009      0.10       0.05       0.05       0.0        OUTLET    
SC02             0.009      0.1        0.05       0.05       0          OUTLET    
SC03             0.007      0.1        0.05       0.05       0          OUTLET    
SC04             0.009      0.1        0.05       0.05       0          OUTLET    
SC05             0.007      0.1        0.05       0.05       0          OUTLET    
SC06             0.01       0.1        0.05       0.05       0          OUTLET    
SC07             0.02       0.1        0.05       0.05       0          OUTLET    
SC08             0.01       0.1        0.05       0.05       0          OUTLET    
SC09             0.016      0.1        0.05       0.05       0          OUTLET    
SC010            0.008      0.1        0.05       0.05       0          OUTLET    

[INFILTRATION]
;;Subcatchment   MaxRate    MinRate    Decay      DryTime    MaxInfil  
;;-------------- ---------- ---------- ---------- ---------- ----------
SC01             3.0        0.5        4          7          0         
SC02             3.0        0.5        4          7          0         
SC03             3.0        0.5        4          7          0         
SC04             3.0        0.5        4          7          0         
SC05             3.0        0.5        4          7          0         
SC06             3.0        0.5        4          7          0         
SC07             3.0        0.5        4          7          0         
SC08             3.0        0.5        4          7          0         
SC09             3.0        0.5        4          7          0         
SC010            3.0        0.5        4          7          0         

[JUNCTIONS]
;;Name           Elevation  MaxDepth   InitDepth  SurDepth   Aponded   
;;-------------- ---------- ---------- ---------- ---------- ----------
J1               34.000000  2          0.000000   05.000000  0.000000  
J3               18.000000  2          0.000000   0.000000   0.000000  
CSO7             34.00000   1.2        0.000000   0.000000   0.000     
J5               32.00000   2.000000   0.000000   0.000000   0.000000  
CSO9             40.000000  2          0.000000   0.000000   0.000000  
J8               36.000000  3.000000   0.000000   0.000000   0.000000  
CSO8             32.000000  2          0.000000   0.00000    0.00000   
J10              29.000000  2.000000   0.000000   0.000000   0.000000  
J13              29.000000  2.000000   0.000000   0.000000   0.000000  
J15              15.000000  3.000000   0.000000   0.000000   0.000000  
J16              30.000000  2.000000   0.000000   0.000000   0.000000  
CSO10            30.000000  1.00000    0.000000   0.000000   0.000000  
J12              26.000000  2.000000   0.000000   0.000000   0.000000  
J4               33         2.0        0.00000    0.00000    0.00000   
J6               25         2          0.0000     0.0000     0.0000    
J2               25         2          0.00000    0.00000    0.00000   
J19              8          2          0.0000     0.0000     0.0000    
J9               29         2          0.0000     0.0000     0.0000    
J14              20         2          0.0000     0.0000     0.0000    
J17              20         2          0.0000     0.0000     0.0000    
J7               39         2          0.00000    0.00000    0.00000   
J11              31         2          0.0000     0.0000     0.0000    
J18              29         2          0.0000     0.0000     0.0000    

[OUTFALLS]
;;Name           Elevation  Type       Stage Data       Gated    Route To        
;;-------------- ---------- ---------- ---------------- -------- ----------------
Out_to_WWTP      6          FREE                        NO                       

[STORAGE]
;;Name           Elev.    MaxDepth   InitDepth  Shape      Curve Name/Params            N/A      Fevap    Psi      Ksat     IMD     
;;-------------- -------- ---------- ----------- ---------- ---------------------------- -------- --------          -------- --------
T5               27.000000 5.000000   0.000000   TABULAR    Tank5                        0.000000 0.000000
T4               27.000000 5.000000   0.000000   TABULAR    Tank4                        0.000000 0.000000
T6               31.000000 5.000000   0.000000   TABULAR    Tank6                        0        0       
T3               22.000000 5.000000   0.000000   TABULAR    Tank3                        0.000000 0.000000
T2               21.000000 5.000000   0.000000   TABULAR    Tank2                        0.000000 0.000000
T1               10.000000 5.000000   0.000000   TABULAR    Tank1                        0.000000 0.000000

[CONDUITS]
;;Name           From Node        To Node          Length     Roughness  InOffset   OutOffset  InitFlow   MaxFlow   
;;-------------- ---------------- ---------------- ---------- ---------- ---------- ---------- ---------- ----------
C1               J2               J3               400        0.013      0.00000    0.00000    0.00000    0         
C6               J4               J5               400        0.01       0.00000    0.00000    0.00000    0         
C2               J6               J3               400        0.012      0.00000    0.00000    0.00000    0         
C9               J7               J8               500        0.013      0.00000    0.00000    0.00000    0         
C16              J11              J10              500        0.012      0.0000     0.0000     0.00000    0         
C3               J14              J3               200        0.012      0.000      0.000      0.00000    0         
C19              J17              J15              400        0.012      0.00000    0.00000    0.00000    0         
C11              J3               J15              200        0.012      0.0000     0.0000     0.00000    0         
C20              J16              J15              400        0.012      0.0000     0.0000     0.00000    0         
C22              J18              J15              500        0.013      0.0000     0.0000     0.00000    0         
C12              J9               J12              500        0.012      0.00000    0.00000    0.00000    0         
C17              J10              J12              200        0.012      0.0000     0.0000     0.00000    0         
C10              J8               T6               310.5      0.012      0.00000    0.00000    0.00000    0         
C13              J12              T3               375        0.012      0          0          0.00000    0         
C18              J13              T2               257        0.013      0.0000     0.0000     0.00000    0         
C23              J15              T1               305        0.013      0.0000     0.0000     0.00000    0         
C4               J1               T5               278        0.012      0.0000     0.0000     0.00000    0         
C7               J5               T4               204        0.012      0.00000    0.00000    0.00000    0         
C14              J19              Out_to_WWTP      200        0.011      0.0000     0.0000     0.0000     0         
C5               CSO7             J4               100        0.014      0.0000     0.0000     0.0000     0         
C8               CSO9             J7               100        0.0185     0.0000     0.0000     0.00000    0         
C15              CSO8             J11              100        0.012      0.0000     0.0000     0.0000     0         
C21              CSO10            J18              100        0.02       0.00000    0.00000    0.00000    0         

[ORIFICES]
;;Name           From Node        To Node          Type         Offset     Qcoeff     Gated    CloseTime 
;;-------------- ---------------- ---------------- ------------ ---------- ---------- -------- ----------
V4               T4               J6               SIDE         0.00000    1          NO       0         
V5               T5               J2               SIDE         0.0000     1          NO       0         
V1               T1               J19              SIDE         0.00000    1          NO       0         
V6               T6               J9               SIDE         0.0000     1          NO       0         
V3               T3               J14              SIDE         0.0000     1          NO       0         
V2               T2               J17              SIDE         0.0000     1          NO       0         

[XSECTIONS]
;;Link           Shape        Geom1            Geom2      Geom3      Geom4      Barrels    Culvert   
;;-------------- ------------ ---------------- ---------- ---------- ---------- ---------- ----------
C1               CIRCULAR     1                0          0          0          1                    
C6               CIRCULAR     0.3              0          0          0          1                    
C2               CIRCULAR     0.6              0          0          0          1                    
C9               CIRCULAR     0.5              0          0          0          1                    
C16              CIRCULAR     2                0          0          0          1                    
C3               CIRCULAR     1                0          0          0          1                    
C19              CIRCULAR     1                0          0          0          1                    
C11              CIRCULAR     2                0          0          0          1                    
C20              CIRCULAR     2                0          0          0          1                    
C22              CIRCULAR     0.8              0          0          0          1                    
C12              CIRCULAR     2                0          0          0          1                    
C17              CIRCULAR     2                0          0          0          1                    
C10              CIRCULAR     1.5              0          0          0          1                    
C13              CIRCULAR     2                0          0          0          1                    
C18              CIRCULAR     2                0          0          0          1                    
C23              CIRCULAR     1.5              0          0          0          1                    
C4               CIRCULAR     1                0          0          0          1                    
C7               CIRCULAR     1                0          0          0          1                    
C14              CIRCULAR     2                0          0          0          1                    
C5               CIRCULAR     0.2555           0          0          0          1                    
C8               CIRCULAR     0.318            0          0          0          1                    
C15              CIRCULAR     0.453            0          0          0          1                    
C21              CIRCULAR     0.44             0          0          0          1                    
V4               RECT_CLOSED  0.0264           0.3048     0          0
V5               RECT_CLOSED  0.013            0.3048     0          0
V1               RECT_CLOSED  0.09             0.3048     0          0
V6               RECT_CLOSED  0.0581           0.3048     0          0
V3               RECT_CLOSED  0.063            0.3048     0          0
V2               RECT_CLOSED  0.0465           0.3048     0          0

[LOSSES]
;;Link           Kentry     Kexit      Kavg       Flap Gate  Seepage   
;;-------------- ---------- ---------- ---------- ---------- ----------
C1               0.00000    0.00000    0.00000    NO         0.00000   
C6               0.00000    0.00000    0.00000    NO         0.00000   
C2               0.00000    0.00000    0.00000    NO         0.00000   
C9               0.00000    0.00000    0.00000    NO         0.00000   
C16              0.00000    0.00000    0.00000    NO         0         
C3               0.00000    0.00000    0.00000    NO         0         
C19              0.00000    0.00000    0.00000    NO         0.00000   
C11              0.00000    0.00000    0.00000    NO         0.00000   
C20              0.00000    0.00000    0.00000    NO         0.0000    
C22              0.00000    0.00000    0.00000    NO         0.0000    
C12              0.00000    0.00000    0.00000    NO         0.00000   
C17              0.00000    0.00000    0.00000    NO         0.0000    
C10              0.00000    0.00000    0.00000    NO         0.00000   
C13              0.00000    0.00000    0.00000    NO         0         
C18              0.00000    0.00000    0.00000    NO         0.0000    
C23              0.00000    0.00000    0.00000    NO         0.0000    
C4               0.00000    0.00000    0.00000    NO         0.00000   
C7               0.00000    0.00000    0.00000    NO         0.00000   
C14              0.0000     0.0000     0.0000     NO         0.0000    
C5               0.00000    0.00000    0.00000    NO         0.00000   
C8               0.00000    0.00000    0.00000    NO         0.00000   
C15              0.0000     0.0000     0.0000     NO         0.0000    
C21              0.00000    0.00000    0.00000    NO         0.00000   

[CONTROLS]
RULE R0
IF SIMULATION TIME > 0
THEN ORIFICE V1 SETTING = TIMESERIES pump_0

RULE R1
IF SIMULATION TIME > 0
THEN ORIFICE V2 SETTING = TIMESERIES pump_1

RULE R2
IF SIMULATION TIME > 0
THEN ORIFICE V3 SETTING = TIMESERIES pump_2

RULE R3
IF SIMULATION TIME > 0
THEN ORIFICE V4 SETTING = TIMESERIES pump_3

RULE R4
IF SIMULATION TIME > 0
THEN ORIFICE V5 SETTING = TIMESERIES pump_4

RULE R5
IF SIMULATION TIME > 0
THEN ORIFICE V6 SETTING = TIMESERIES pump_5



[DWF]
;;Node           Constituent      Baseline   Patterns  
;;-------------- ---------------- ---------- ----------
J1               FLOW             0.01269    "" "DWF"
CSO7             FLOW             0.00656    "" "DWF"
J5               FLOW             0.00288    "" "DWF"
CSO9             FLOW             0.00443    "" "DWF"
J8               FLOW             0.02126    "" "DWF"
CSO8             FLOW             0.00518    "DWFCommercial0"
J10              FLOW             0.00871    "" "DWF"
J13              FLOW             0.01056    "" "DWF"
J16              FLOW             0.01251    "" "DWF"
CSO10            FLOW             0.00314    "" "DWF"

[CURVES]
;;Name           Type       X-Value    Y-Value   
;;-------------- ---------- ---------- ----------
Tank1            Storage    0          140       
Tank1                       5          140       
;
Tank2            Storage    0          200       
Tank2                       5          200       
;
Tank3            Storage    0          520       
Tank3                       5          520       
;
Tank4            Storage    0          100       
Tank4                       5          100       
;
Tank5            Storage    0          100       
Tank5                       5          100       
;
Tank6            Storage    0          120       
Tank6                       5          120       

[TIMESERIES]
;;Name           Date       Time       Value     
;;-------------- ---------- ---------- ----------
pump_0           8/28/2015  08:10      1
pump_0           8/28/2015  08:20      1
pump_0           8/28/2015  08:30      1
pump_0           8/28/2015  08:40      1
pump_0           8/28/2015  08:50      1
pump_0           8/28/2015  09:00      1
pump_0           8/28/2015  09:10      1
pump_0           8/28/2015  09:20      1
pump_0           8/28/2015  09:30      1
pump_0           8/28/2015  09:40      1
pump_0           8/28/2015  09:50      1
pump_0           8/28/2015  10:00      1
pump_0           8/28/2015  10:10      1
pump_0           8/28/2015  10:20      1
pump_0           8/28/2015  10:30      1
pump_0           8/28/2015  10:40      1
pump_0           8/28/2015  10:50      1
pump_0           8/28/2015  11:00      1
pump_0           8/28/2015  11:10      1
pump_0           8/28/2015  11:20      1
pump_0           8/28/2015  11:30      1
pump_0           8/28/2015  11:40      1
pump_0           8/28/2015  11:50      1
pump_0           8/28/2015  12:00      1
pump_0           8/28/2015  12:10      1
pump_0           8/28/2015  12:20      1
pump_0           8/28/2015  12:30      1
pump_0           8/28/2015  12:40      1
pump_0           8/28/2015  12:50      1
pump_0           8/28/2015  13:00      1
pump_0           8/28/2015  13:10      1
pump_0           8/28/2015  13:20      1
pump_0           8/28/2015  13:30      1
pump_0           8/28/2015  13:40      1
pump_0           8/28/2015  13:50      1
pump_0           8/28/2015  14:00      1
pump_0           8/28/2015  14:10      1
pump_0           8/28/2015  14:20      1
pump_0           8/28/2015  14:30      1
pump_0           8/28/2015  14:40      1
pump_0           8/28/2015  14:50      1
pump_0           8/28/2015  15:00      1
pump_0           8/28/2015  15:10      1
pump_0           8/28/2015  15:20      1
pump_0           8/28/2015  15:30      1
pump_0           8/28/2015  15:40      1
;
pump_1           8/28/2015  08:10      0.14824973423703366
pump_1           8/28/2015  08:20      0.1622200161456786
pump_1           8/28/2015  08:30      0.12734501991006808
pump_1           8/28/2015  08:40      0.15114094246613738
pump_1           8/28/2015  08:50      0.14449384872199258
pump_1           8/28/2015  09:00      0.13790967383019284
pump_1           8/28/2015  09:10      0.1393838998942716
pump_1           8/28/2015  09:20      0.14178020021820545
pump_1           8/28/2015  09:30      0.15328410536732803
pump_1           8/28/2015  09:40      0.13853869563753515
pump_1           8/28/2015  09:50      0.2749681642363858
pump_1           8/28/2015  10:00      0.2793524887011579
pump_1           8/28/2015  10:10      0.2650420834890071
pump_1           8/28/2015  10:20      0.28772348652586643
pump_1           8/28/2015  10:30      0.30081589303937634
pump_1           8/28/2015  10:40      0.2698598269279352
pump_1           8/28/2015  10:50      0.28579447184418216
pump_1           8/28/2015  11:00      0.27350320519580285
pump_1           8/28/2015  11:10      0.2819336745642696
pump_1           8/28/2015  11:20      0.2747829480451372
pump_1           8/28/2015  11:30      0.2986866162998111
pump_1           8/28/2015  11:40      0.27335668184383166
pump_1           8/28/2015  11:50      0.28453930409142814
pump_1           8/28/2015  12:00      0.28267366152617696
pump_1           8/28/2015  12:10      0.2657603986311535
pump_1           8/28/2015  12:20      0.254997305869507
pump_1           8/28/2015  12:30      0.28239087215750036
pump_1           8/28/2015  12:40      0.2850451843957688
pump_1           8/28/2015  12:50      0.2712329458179273
pump_1           8/28/2015  13:00      0.27026625332462345
pump_1           8/28/2015  13:10      0.2863680325556214
pump_1           8/28/2015  13:20      0.285128334249128
pump_1           8/28/2015  13:30      0.2861587664736448
pump_1           8/28/2015  13:40      0.2792140203554022
pump_1           8/28/2015  13:50      0.26871723538877706
pump_1           8/28/2015  14:00      0.26442026620305403
pump_1           8/28/2015  14:10      0.25666863454267724
pump_1           8/28/2015  14:20      0.27602318242095664
pump_1           8/28/2015  14:30      0.29579168758793534
pump_1           8/28/2015  14:40      0.28137894556038334
pump_1           8/28/2015  14:50      0.27580259756460207
pump_1           8/28/2015  15:00      0.261392537833671
pump_1           8/28/2015  15:10      0.2699206993342909
pump_1           8/28/2015  15:20      0.2766493877562355
pump_1           8/28/2015  15:30      0.27437780524322
pump_1           8/28/2015  15:40      0.28568339690169253
;
pump_2           8/28/2015  08:10      0.6915497342370337
pump_2           8/28/2015  08:20      0.7055200161456787
pump_2           8/28/2015  08:30      0.6706450199100681
pump_2           8/28/2015  08:40      0.6944409424661374
pump_2           8/28/2015  08:50      0.6877938487219927
pump_2           8/28/2015  09:00      0.6812096738301929
pump_2           8/28/2015  09:10      0.6826838998942717
pump_2           8/28/2015  09:20      0.6850802002182055
pump_2           8/28/2015  09:30      0.6965841053673281
pump_2           8/28/2015  09:40      0.6818386956375352
pump_2           8/28/2015  09:50      0.35426816423638585
pump_2           8/28/2015  10:00      0.6935524887011579
pump_2           8/28/2015  10:10      0.34434208348900713
pump_2           8/28/2015  10:20      0.36702348652586647
pump_2           8/28/2015  10:30      0.3801158930393763
pump_2           8/28/2015  10:40      0.34915982692793524
pump_2           8/28/2015  10:50      0.3650944718441822
pump_2           8/28/2015  11:00      0.3528032051958029
pump_2           8/28/2015  11:10      0.3612336745642696
pump_2           8/28/2015  11:20      0.3540829480451372
pump_2           8/28/2015  11:30      0.3779866162998111
pump_2           8/28/2015  11:40      0.3526566818438317
pump_2           8/28/2015  11:50      0.3638393040914282
pump_2           8/28/2015  12:00      0.36197366152617694
pump_2           8/28/2015  12:10      0.34506039863115356
pump_2           8/28/2015  12:20      0.334297305869507
pump_2           8/28/2015  12:30      0.3616908721575004
pump_2           8/28/2015  12:40      0.36434518439576885
pump_2           8/28/2015  12:50      0.3505329458179273
pump_2           8/28/2015  13:00      0.3495662533246235
pump_2           8/28/2015  13:10      0.3656680325556214
pump_2           8/28/2015  13:20      0.364428334249128
pump_2           8/28/2015  13:30      0.36545876647364484
pump_2           8/28/2015  13:40      0.3585140203554022
pump_2           8/28/2015  13:50      0.3480172353887771
pump_2           8/28/2015  14:00      0.343720266203054
pump_2           8/28/2015  14:10      0.3359686345426773
pump_2           8/28/2015  14:20      0.3553231824209566
pump_2           8/28/2015  14:30      0.3750916875879353
pump_2           8/28/2015  14:40      0.3606789455603834
pump_2           8/28/2015  14:50      0.3551025975646021
pump_2           8/28/2015  15:00      0.340692537833671
pump_2           8/28/2015  15:10      0.34922069933429095
pump_2           8/28/2015  15:20      0.35594938775623547
pump_2           8/28/2015  15:30      0.35367780524321996
pump_2           8/28/2015  15:40      0.3649833969016925
;
pump_3           8/28/2015  08:10      0.23014973423703367
pump_3           8/28/2015  08:20      0.24412001614567863
pump_3           8/28/2015  08:30      0.20924501991006808
pump_3           8/28/2015  08:40      0.2330409424661374
pump_3           8/28/2015  08:50      0.22639384872199259
pump_3           8/28/2015  09:00      0.21980967383019287
pump_3           8/28/2015  09:10      0.2212838998942716
pump_3           8/28/2015  09:20      0.22368020021820545
pump_3           8/28/2015  09:30      0.23518410536732803
pump_3           8/28/2015  09:40      0.22043869563753518
pump_3           8/28/2015  09:50      0.22776816423638585
pump_3           8/28/2015  10:00      0.23215248870115793
pump_3           8/28/2015  10:10      0.3807420834890071
pump_3           8/28/2015  10:20      0.40342348652586646
pump_3           8/28/2015  10:30      0.4165158930393763
pump_3           8/28/2015  10:40      0.3855598269279352
pump_3           8/28/2015  10:50      0.4014944718441822
pump_3           8/28/2015  11:00      0.38920320519580287
pump_3           8/28/2015  11:10      0.39763367456426957
pump_3           8/28/2015  11:20      0.39048294804513717
pump_3           8/28/2015  11:30      0.4143866162998111
pump_3           8/28/2015  11:40      0.3890566818438317
pump_3           8/28/2015  11:50      0.40023930409142816
pump_3           8/28/2015  12:00      0.3983736615261769
pump_3           8/28/2015  12:10      0.38146039863115355
pump_3           8/28/2015  12:20      0.370697305869507
pump_3           8/28/2015  12:30      0.3980908721575004
pump_3           8/28/2015  12:40      0.40074518439576884
pump_3           8/28/2015  12:50      0.3869329458179273
pump_3           8/28/2015  13:00      0.3859662533246235
pump_3           8/28/2015  13:10      0.4020680325556214
pump_3           8/28/2015  13:20      0.400828334249128
pump_3           8/28/2015  13:30      0.4018587664736448
pump_3           8/28/2015  13:40      0.3949140203554022
pump_3           8/28/2015  13:50      0.3844172353887771
pump_3           8/28/2015  14:00      0.380120266203054
pump_3           8/28/2015  14:10      0.37236863454267727
pump_3           8/28/2015  14:20      0.3917231824209566
pump_3           8/28/2015  14:30      0.4114916875879353
pump_3           8/28/2015  14:40      0.39707894556038337
pump_3           8/28/2015  14:50      0.3915025975646021
pump_3           8/28/2015  15:00      0.37709253783367097
pump_3           8/28/2015  15:10      0.38562069933429094
pump_3           8/28/2015  15:20      0.39234938775623546
pump_3           8/28/2015  15:30      0.39007780524321994
pump_3           8/28/2015  15:40      0.4013833969016925
;
pump_4           8/28/2015  08:10      1
pump_4           8/28/2015  08:20      1
pump_4           8/28/2015  08:30      1
pump_4           8/28/2015  08:40      1
pump_4           8/28/2015  08:50      1
pump_4           8/28/2015  09:00      1
pump_4           8/28/2015  09:10      1
pump_4           8/28/2015  09:20      1
pump_4           8/28/2015  09:30      1
pump_4           8/28/2015  09:40      1
pump_4           8/28/2015  09:50      1
pump_4           8/28/2015  10:00      1
pump_4           8/28/2015  10:10      1
pump_4           8/28/2015  10:20      1
pump_4           8/28/2015  10:30      1
pump_4           8/28/2015  10:40      1
pump_4           8/28/2015  10:50      1
pump_4           8/28/2015  11:00      1
pump_4           8/28/2015  11:10      1
pump_4           8/28/2015  11:20      1
pump_4           8/28/2015  11:30      1
pump_4           8/28/2015  11:40      1
pump_4           8/28/2015  11:50      1
pump_4           8/28/2015  12:00      1
pump_4           8/28/2015  12:10      1
pump_4           8/28/2015  12:20      1
pump_4           8/28/2015  12:30      1
pump_4           8/28/2015  12:40      1
pump_4           8/28/2015  12:50      1
pump_4           8/28/2015  13:00      1
pump_4           8/28/2015  13:10      1
pump_4           8/28/2015  13:20      1
pump_4           8/28/2015  13:30      1
pump_4           8/28/2015  13:40      1
pump_4           8/28/2015  13:50      1
pump_4           8/28/2015  14:00      1
pump_4           8/28/2015  14:10      1
pump_4           8/28/2015  14:20      1
pump_4           8/28/2015  14:30      1
pump_4           8/28/2015  14:40      1
pump_4           8/28/2015  14:50      1
pump_4           8/28/2015  15:00      1