[TITLE]
;;Project Title/Notes

[OPTIONS]
;;Option             Value
FLOW_UNITS           CMS
INFILTRATION         HORTON
FLOW_ROUTING         DYNWAVE
LINK_OFFSETS         DEPTH
MIN_SLOPE            0
ALLOW_PONDING        YES
SKIP_STEADY_STATE    NO

START_DATE           08/28/2015
START_TIME           08:00
REPORT_START_DATE    08/28/2015
REPORT_START_TIME    08:00
END_DATE             08/28/2015
END_TIME             15:50
SWEEP_START          01/01
SWEEP_END            12/31
DRY_DAYS             0
REPORT_STEP          00:01:00
WET_STEP             00:01:00
DRY_STEP             00:01:00
ROUTING_STEP         0:00:05 
RULE_STEP            00:00:00

INERTIAL_DAMPING     PARTIAL
NORMAL_FLOW_LIMITED  BOTH
FORCE_MAIN_EQUATION  H-W
VARIABLE_STEP        0.75
LENGTHENING_STEP     0
MIN_SURFAREA         1.167
MAX_TRIALS           8
HEAD_TOLERANCE       0.0015
SYS_FLOW_TOL         5
LAT_FLOW_TOL         5
MINIMUM_STEP         0.5
THREADS              1

[EVAPORATION]
;;Data Source    Parameters
;;-------------- ----------------
CONSTANT         0.0
DRY_ONLY         NO

[RAINGAGES]
;;Name           Format    Interval SCF      Source    
;;-------------- --------- ------ ------ ----------
RG1              INTENSITY 0:01     1.0      TIMESERIES Oneyear-2h      
RG2              INTENSITY 0:01     1.0      TIMESERIES Oneyear-2h      
RG3              INTENSITY 0:01     1.0      TIMESERIES Oneyear-2h      
RG4              INTENSITY 0:01     1.0      TIMESERIES Oneyear-2h      

[SUBCATCHMENTS]
;;Name           Rain Gage        Outlet           Area     %Imperv  Width    %Slope   CurbLen  SnowPack        
;;-------------- ---------------- ---------------- -------- -------- -------- -------- -------- ----------------
SC01             RG4              J16              33       100      2400     0.8      0.0                      
SC02             RG3              J13              22.75    100      1500     0.8      0                        
SC03             RG1              J10              18       100      2000     0.5      0                        
SC04             RG3              J5               6.9      100      200      0.7      0                        
SC05             RG4              J1               15.6     100      1000     0.5      0                        
SC06             RG2              J8               32.55    100      985      0.5      0                        
SC07             RG3              CSO7             4.75     100      360      0.51     0                        
SC08             RG1              CSO8             28       100      1950     0.45     0                        
SC09             RG2              CSO9             6.9      100      650      0.4      0                        
SC010            RG4              CSO10            11.75    100      650      0.5      0                        

[SUBAREAS]
;;Subcatchment   N-Imperv   N-Perv     S-Imperv   S-Perv     PctZero    RouteTo    PctRouted 
;;-------------- ---------- ---------- ---------- ---------- ---------- ---------- ----------
SC01             0.009      0.10       0.05       0.05       0.0        OUTLET    
SC02             0.009      0.1        0.05       0.05       0          OUTLET    
SC03             0.007      0.1        0.05       0.05       0          OUTLET    
SC04             0.009      0.1        0.05       0.05       0          OUTLET    
SC05             0.007      0.1        0.05       0.05       0          OUTLET    
SC06             0.01       0.1        0.05       0.05       0          OUTLET    
SC07             0.02       0.1        0.05       0.05       0          OUTLET    
SC08             0.01       0.1        0.05       0.05       0          OUTLET    
SC09             0.016      0.1        0.05       0.05       0          OUTLET    
SC010            0.008      0.1        0.05       0.05       0          OUTLET    

[INFILTRATION]
;;Subcatchment   MaxRate    MinRate    Decay      DryTime    MaxInfil  
;;-------------- ---------- ---------- ---------- ---------- ----------
SC01             3.0        0.5        4          7          0         
SC02             3.0        0.5        4          7          0         
SC03             3.0        0.5        4          7          0         
SC04             3.0        0.5        4          7          0         
SC05             3.0        0.5        4          7          0         
SC06             3.0        0.5        4          7          0         
SC07             3.0        0.5        4          7          0         
SC08             3.0        0.5        4          7          0         
SC09             3.0        0.5        4          7          0         
SC010            3.0        0.5        4          7          0         

[JUNCTIONS]
;;Name           Elevation  MaxDepth   InitDepth  SurDepth   Aponded   
;;-------------- ---------- ---------- ---------- ---------- ----------
J1               34.000000  2          0.000000   05.000000  0.000000  
J3               18.000000  2          0.000000   0.000000   0.000000  
CSO7             34.00000   1.2        0.000000   0.000000   0.000     
J5               32.00000   2.000000   0.000000   0.000000   0.000000  
CSO9             40.000000  2          0.000000   0.000000   0.000000  
J8               36.000000  3.000000   0.000000   0.000000   0.000000  
CSO8             32.000000  2          0.000000   0.00000    0.00000   
J10              29.000000  2.000000   0.000000   0.000000   0.000000  
J13              29.000000  2.000000   0.000000   0.000000   0.000000  
J15              15.000000  3.000000   0.000000   0.000000   0.000000  
J16              30.000000  2.000000   0.000000   0.000000   0.000000  
CSO10            30.000000  1.00000    0.000000   0.000000   0.000000  
J12              26.000000  2.000000   0.000000   0.000000   0.000000  
J4               33         2.0        0.00000    0.00000    0.00000   
J6               25         2          0.0000     0.0000     0.0000    
J2               25         2          0.00000    0.00000    0.00000   
J19              8          2          0.0000     0.0000     0.0000    
J9               29         2          0.0000     0.0000     0.0000    
J14              20         2          0.0000     0.0000     0.0000    
J17              20         2          0.0000     0.0000     0.0000    
J7               39         2          0.00000    0.00000    0.00000   
J11              31         2          0.0000     0.0000     0.0000    
J18              29         2          0.0000     0.0000     0.0000    

[OUTFALLS]
;;Name           Elevation  Type       Stage Data       Gated    Route To        
;;-------------- ---------- ---------- ---------------- -------- ----------------
Out_to_WWTP      6          FREE                        NO                       

[STORAGE]
;;Name           Elev.    MaxDepth   InitDepth  Shape      Curve Name/Params            N/A      Fevap    Psi      Ksat     IMD     
;;-------------- -------- ---------- ----------- ---------- ---------------------------- -------- --------          -------- --------
T5               27.000000 5.000000   0.000000   TABULAR    Tank5                        0.000000 0.000000
T4               27.000000 5.000000   0.000000   TABULAR    Tank4                        0.000000 0.000000
T6               31.000000 5.000000   0.000000   TABULAR    Tank6                        0        0       
T3               22.000000 5.000000   0.000000   TABULAR    Tank3                        0.000000 0.000000
T2               21.000000 5.000000   0.000000   TABULAR    Tank2                        0.000000 0.000000
T1               10.000000 5.000000   0.000000   TABULAR    Tank1                        0.000000 0.000000

[CONDUITS]
;;Name           From Node        To Node          Length     Roughness  InOffset   OutOffset  InitFlow   MaxFlow   
;;-------------- ---------------- ---------------- ---------- ---------- ---------- ---------- ---------- ----------
C1               J2               J3               400        0.013      0.00000    0.00000    0.00000    0         
C6               J4               J5               400        0.01       0.00000    0.00000    0.00000    0         
C2               J6               J3               400        0.012      0.00000    0.00000    0.00000    0         
C9               J7               J8               500        0.013      0.00000    0.00000    0.00000    0         
C16              J11              J10              500        0.012      0.0000     0.0000     0.00000    0         
C3               J14              J3               200        0.012      0.000      0.000      0.00000    0         
C19              J17              J15              400        0.012      0.00000    0.00000    0.00000    0         
C11              J3               J15              200        0.012      0.0000     0.0000     0.00000    0         
C20              J16              J15              400        0.012      0.0000     0.0000     0.00000    0         
C22              J18              J15              500        0.013      0.0000     0.0000     0.00000    0         
C12              J9               J12              500        0.012      0.00000    0.00000    0.00000    0         
C17              J10              J12              200        0.012      0.0000     0.0000     0.00000    0         
C10              J8               T6               310.5      0.012      0.00000    0.00000    0.00000    0         
C13              J12              T3               375        0.012      0          0          0.00000    0         
C18              J13              T2               257        0.013      0.0000     0.0000     0.00000    0         
C23              J15              T1               305        0.013      0.0000     0.0000     0.00000    0         
C4               J1               T5               278        0.012      0.0000     0.0000     0.00000    0         
C7               J5               T4               204        0.012      0.00000    0.00000    0.00000    0         
C14              J19              Out_to_WWTP      200        0.011      0.0000     0.0000     0.0000     0         
C5               CSO7             J4               100        0.014      0.0000     0.0000     0.0000     0         
C8               CSO9             J7               100        0.0185     0.0000     0.0000     0.00000    0         
C15              CSO8             J11              100        0.012      0.0000     0.0000     0.0000     0         
C21              CSO10            J18              100        0.02       0.00000    0.00000    0.00000    0         

[ORIFICES]
;;Name           From Node        To Node          Type         Offset     Qcoeff     Gated    CloseTime 
;;-------------- ---------------- ---------------- ------------ ---------- ---------- -------- ----------
V4               T4               J6               SIDE         0.00000    1          NO       0         
V5               T5               J2               SIDE         0.0000     1          NO       0         
V1               T1               J19              SIDE         0.00000    1          NO       0         
V6               T6               J9               SIDE         0.0000     1          NO       0         
V3               T3               J14              SIDE         0.0000     1          NO       0         
V2               T2               J17              SIDE         0.0000     1          NO       0         

[XSECTIONS]
;;Link           Shape        Geom1            Geom2      Geom3      Geom4      Barrels    Culvert   
;;-------------- ------------ ---------------- ---------- ---------- ---------- ---------- ----------
C1               CIRCULAR     1                0          0          0          1                    
C6               CIRCULAR     0.3              0          0          0          1                    
C2               CIRCULAR     0.6              0          0          0          1                    
C9               CIRCULAR     0.5              0          0          0          1                    
C16              CIRCULAR     2                0          0          0          1                    
C3               CIRCULAR     1                0          0          0          1                    
C19              CIRCULAR     1                0          0          0          1                    
C11              CIRCULAR     2                0          0          0          1                    
C20              CIRCULAR     2                0          0          0          1                    
C22              CIRCULAR     0.8              0          0          0          1                    
C12              CIRCULAR     2                0          0          0          1                    
C17              CIRCULAR     2                0          0          0          1                    
C10              CIRCULAR     1.5              0          0          0          1                    
C13              CIRCULAR     2                0          0          0          1                    
C18              CIRCULAR     2                0          0          0          1                    
C23              CIRCULAR     1.5              0          0          0          1                    
C4               CIRCULAR     1                0          0          0          1                    
C7               CIRCULAR     1                0          0          0          1                    
C14              CIRCULAR     2                0          0          0          1                    
C5               CIRCULAR     0.2555           0          0          0          1                    
C8               CIRCULAR     0.318            0          0          0          1                    
C15              CIRCULAR     0.453            0          0          0          1                    
C21              CIRCULAR     0.44             0          0          0          1                    
V4               RECT_CLOSED  0.0264           0.3048     0          0
V5               RECT_CLOSED  0.013            0.3048     0          0
V1               RECT_CLOSED  0.09             0.3048     0          0
V6               RECT_CLOSED  0.0581           0.3048     0          0
V3               RECT_CLOSED  0.063            0.3048     0          0
V2               RECT_CLOSED  0.0465           0.3048     0          0

[LOSSES]
;;Link           Kentry     Kexit      Kavg       Flap Gate  Seepage   
;;-------------- ---------- ---------- ---------- ---------- ----------
C1               0.00000    0.00000    0.00000    NO         0.00000   
C6               0.00000    0.00000    0.00000    NO         0.00000   
C2               0.00000    0.00000    0.00000    NO         0.00000   
C9               0.00000    0.00000    0.00000    NO         0.00000   
C16              0.00000    0.00000    0.00000    NO         0         
C3               0.00000    0.00000    0.00000    NO         0         
C19              0.00000    0.00000    0.00000    NO         0.00000   
C11              0.00000    0.00000    0.00000    NO         0.00000   
C20              0.00000    0.00000    0.00000    NO         0.0000    
C22              0.00000    0.00000    0.00000    NO         0.0000    
C12              0.00000    0.00000    0.00000    NO         0.00000   
C17              0.00000    0.00000    0.00000    NO         0.0000    
C10              0.00000    0.00000    0.00000    NO         0.00000   
C13              0.00000    0.00000    0.00000    NO         0         
C18              0.00000    0.00000    0.00000    NO         0.0000    
C23              0.00000    0.00000    0.00000    NO         0.0000    
C4               0.00000    0.00000    0.00000    NO         0.00000   
C7               0.00000    0.00000    0.00000    NO         0.00000   
C14              0.0000     0.0000     0.0000     NO         0.0000    
C5               0.00000    0.00000    0.00000    NO         0.00000   
C8               0.00000    0.00000    0.00000    NO         0.00000   
C15              0.0000     0.0000     0.0000     NO         0.0000    
C21              0.00000    0.00000    0.00000    NO         0.00000   

[CONTROLS]
RULE R0
IF SIMULATION TIME > 0
THEN ORIFICE V1 SETTING = TIMESERIES pump_0

RULE R1
IF SIMULATION TIME > 0
THEN ORIFICE V2 SETTING = TIMESERIES pump_1

RULE R2
IF SIMULATION TIME > 0
THEN ORIFICE V3 SETTING = TIMESERIES pump_2

RULE R3
IF SIMULATION TIME > 0
THEN ORIFICE V4 SETTING = TIMESERIES pump_3

RULE R4
IF SIMULATION TIME > 0
THEN ORIFICE V5 SETTING = TIMESERIES pump_4

RULE R5
IF SIMULATION TIME > 0
THEN ORIFICE V6 SETTING = TIMESERIES pump_5



[DWF]
;;Node           Constituent      Baseline   Patterns  
;;-------------- ---------------- ---------- ----------
J1               FLOW             0.01269    "" "DWF"
CSO7             FLOW             0.00656    "" "DWF"
J5               FLOW             0.00288    "" "DWF"
CSO9             FLOW             0.00443    "" "DWF"
J8               FLOW             0.02126    "" "DWF"
CSO8             FLOW             0.00518    "DWFCommercial0"
J10              FLOW             0.00871    "" "DWF"
J13              FLOW             0.01056    "" "DWF"
J16              FLOW             0.01251    "" "DWF"
CSO10            FLOW             0.00314    "" "DWF"

[CURVES]
;;Name           Type       X-Value    Y-Value   
;;-------------- ---------- ---------- ----------
Tank1            Storage    0          140       
Tank1                       5          140       
;
Tank2            Storage    0          200       
Tank2                       5          200       
;
Tank3            Storage    0          520       
Tank3                       5          520       
;
Tank4            Storage    0          100       
Tank4                       5          100       
;
Tank5            Storage    0          100       
Tank5                       5          100       
;
Tank6            Storage    0          120       
Tank6                       5          120       

[TIMESERIES]
;;Name           Date       Time       Value     
;;-------------- ---------- ---------- ----------
pump_0           8/28/2015  08:10      1.1925256665912678
pump_0           8/28/2015  08:20      1.1489088066782704
pump_0           8/28/2015  08:30      1.1460996831214005
pump_0           8/28/2015  08:40      1.286116191503639
pump_0           8/28/2015  08:50      1.219196508344365
pump_0           8/28/2015  09:00      1.1887635325285066
pump_0           8/28/2015  09:10      1.1053138261298903
pump_0           8/28/2015  09:20      1.1687094486442782
pump_0           8/28/2015  09:30      1.305283561178991
pump_0           8/28/2015  09:40      1.203126576060112
pump_0           8/28/2015  09:50      1.283134637045354
pump_0           8/28/2015  10:00      1.2193716476642766
pump_0           8/28/2015  10:10      1.0699982549598765
pump_0           8/28/2015  10:20      1.156040272596397
pump_0           8/28/2015  10:30      1.292663630420586
pump_0           8/28/2015  10:40      1.076218150877791
pump_0           8/28/2015  10:50      1.4079316004132578
pump_0           8/28/2015  11:00      0.984212824450244
pump_0           8/28/2015  11:10      1.2786499373895623
pump_0           8/28/2015  11:20      1.0959393613209554
pump_0           8/28/2015  11:30      1.2655368446321933
pump_0           8/28/2015  11:40      1.1293285719746935
pump_0           8/28/2015  11:50      1.0944279060795181
pump_0           8/28/2015  12:00      1.153638998123373
pump_0           8/28/2015  12:10      1.1534056135535986
pump_0           8/28/2015  12:20      1.2724319806665418
pump_0           8/28/2015  12:30      1.2879093374190438
pump_0           8/28/2015  12:40      1.110565180540034
pump_0           8/28/2015  12:50      1.171646267546988
pump_0           8/28/2015  13:00      0.9910584683106253
pump_0           8/28/2015  13:10      1.3214584506839127
pump_0           8/28/2015  13:20      1.1242981192946249
pump_0           8/28/2015  13:30      1.0222805911944453
pump_0           8/28/2015  13:40      1.1565282256354243
pump_0           8/28/2015  13:50      1.3168692125880348
pump_0           8/28/2015  14:00      1.2677373989061544
pump_0           8/28/2015  14:10      1.1331119687232911
pump_0           8/28/2015  14:20      1.4502269937505692
pump_0           8/28/2015  14:30      0.897394334265327
pump_0           8/28/2015  14:40      1.1206601318318457
pump_0           8/28/2015  14:50      1.1334230762850732
pump_0           8/28/2015  15:00      1.1486386676880156
pump_0           8/28/2015  15:10      1.2952085945115615
pump_0           8/28/2015  15:20      1.294113516960305
pump_0           8/28/2015  15:30      1.3107331221170746
pump_0           8/28/2015  15:40      1.3558291221507814
;
pump_1           8/28/2015  08:10      0.4291256665912677
pump_1           8/28/2015  08:20      0.38550880667827053
pump_1           8/28/2015  08:30      0.2535996831214005
pump_1           8/28/2015  08:40      0.39361619150363886
pump_1           8/28/2015  08:50      0.3266965083443651
pump_1           8/28/2015  09:00      0.2962635325285067
pump_1           8/28/2015  09:10      0.21281382612989036
pump_1           8/28/2015  09:20      0.2762094486442782
pump_1           8/28/2015  09:30      0.412783561178991
pump_1           8/28/2015  09:40      0.310626576060112
pump_1           8/28/2015  09:50      0.39063463704535395
pump_1           8/28/2015  10:00      0.4559716476642766
pump_1           8/28/2015  10:10      0.3065982549598766
pump_1           8/28/2015  10:20      0.3926402725963971
pump_1           8/28/2015  10:30      0.529263630420586
pump_1           8/28/2015  10:40      0.31281815087779097
pump_1           8/28/2015  10:50      0.644531600413258
pump_1           8/28/2015  11:00      0.22081282445024403
pump_1           8/28/2015  11:10      0.5152499373895623
pump_1           8/28/2015  11:20      0.33253936132095535
pump_1           8/28/2015  11:30      0.5021368446321932
pump_1           8/28/2015  11:40      0.3659285719746936
pump_1           8/28/2015  11:50      0.3310279060795182
pump_1           8/28/2015  12:00      0.3902389981233731
pump_1           8/28/2015  12:10      0.39000561355359853
pump_1           8/28/2015  12:20      0.5090319806665418
pump_1           8/28/2015  12:30      0.5245093374190437
pump_1           8/28/2015  12:40      0.34716518054003415
pump_1           8/28/2015  12:50      0.4082462675469881
pump_1           8/28/2015  13:00      0.2276584683106253
pump_1           8/28/2015  13:10      0.5580584506839127
pump_1           8/28/2015  13:20      0.36089811929462495
pump_1           8/28/2015  13:30      0.25888059119444523
pump_1           8/28/2015  13:40      0.39312822563542427
pump_1           8/28/2015  13:50      0.5534692125880347
pump_1           8/28/2015  14:00      0.5043373989061545
pump_1           8/28/2015  14:10      0.3697119687232911
pump_1           8/28/2015  14:20      0.6868269937505693
pump_1           8/28/2015  14:30      0.13399433426532703
pump_1           8/28/2015  14:40      0.35726013183184563
pump_1           8/28/2015  14:50      0.37002307628507314
pump_1           8/28/2015  15:00      0.3852386676880156
pump_1           8/28/2015  15:10      0.5318085945115614
pump_1           8/28/2015  15:20      0.530713516960305
pump_1           8/28/2015  15:30      0.5473331221170745
pump_1           8/28/2015  15:40      0.5924291221507815
;
pump_2           8/28/2015  08:10      0.8433256665912677
pump_2           8/28/2015  08:20      0.7997088066782706
pump_2           8/28/2015  08:30      0.7968996831214006
pump_2           8/28/2015  08:40      0.9369161915036389
pump_2           8/28/2015  08:50      0.8699965083443651
pump_2           8/28/2015  09:00      0.8395635325285067
pump_2           8/28/2015  09:10      0.7561138261298904
pump_2           8/28/2015  09:20      0.8195094486442782
pump_2           8/28/2015  09:30      0.9560835611789911
pump_2           8/28/2015  09:40      0.853926576060112
pump_2           8/28/2015  09:50      0.9339346370453541
pump_2           8/28/2015  10:00      0.5352716476642766
pump_2           8/28/2015  10:10      0.3858982549598766
pump_2           8/28/2015  10:20      0.4719402725963971
pump_2           8/28/2015  10:30      0.6085636304205859
pump_2           8/28/2015  10:40      0.392118150877791
pump_2           8/28/2015  10:50      0.7238316004132579
pump_2           8/28/2015  11:00      0.30011282445024406
pump_2           8/28/2015  11:10      0.5945499373895623
pump_2           8/28/2015  11:20      0.41183936132095533
pump_2           8/28/2015  11:30      0.5814368446321933
pump_2           8/28/2015  11:40      0.44522857197469357
pump_2           8/28/2015  11:50      0.41032790607951825
pump_2           8/28/2015  12:00      0.4695389981233731
pump_2           8/28/2015  12:10      0.46930561355359857
pump_2           8/28/2015  12:20      0.5883319806665417
pump_2           8/28/2015  12:30      0.6038093374190436
pump_2           8/28/2015  12:40      0.42646518054003413
pump_2           8/28/2015  12:50      0.4875462675469881
pump_2           8/28/2015  13:00      0.3069584683106253
pump_2           8/28/2015  13:10      0.6373584506839127
pump_2           8/28/2015  13:20      0.440198119294625
pump_2           8/28/2015  13:30      0.3381805911944452
pump_2           8/28/2015  13:40      0.4724282256354243
pump_2           8/28/2015  13:50      0.6327692125880348
pump_2           8/28/2015  14:00      0.5836373989061545
pump_2           8/28/2015  14:10      0.4490119687232911
pump_2           8/28/2015  14:20      0.7661269937505693
pump_2           8/28/2015  14:30      0.21329433426532707
pump_2           8/28/2015  14:40      0.43656013183184567
pump_2           8/28/2015  14:50      0.4493230762850732
pump_2           8/28/2015  15:00      0.4645386676880156
pump_2           8/28/2015  15:10      0.6111085945115613
pump_2           8/28/2015  15:20      0.610013516960305
pump_2           8/28/2015  15:30      0.6266331221170744
pump_2           8/28/2015  15:40      0.6717291221507815
;
pump_3           8/28/2015  08:10      0.3819256665912677
pump_3           8/28/2015  08:20      0.33830880667827057
pump_3           8/28/2015  08:30      0.33549968312140055
pump_3           8/28/2015  08:40      0.4755161915036389
pump_3           8/28/2015  08:50      0.4085965083443651
pump_3           8/28/2015  09:00      0.37816353252850665
pump_3           8/28/2015  09:10      0.2947138261298904
pump_3           8/28/2015  09:20      0.35810944864427824
pump_3           8/28/2015  09:30      0.49468356117899104
pump_3           8/28/2015  09:40      0.39252657606011204
pump_3           8/28/2015  09:50      0.472534637045354
pump_3           8/28/2015  10:00      0.40877164766427665
pump_3           8/28/2015  10:10      0.4222982549598766
pump_3           8/28/2015  10:20      0.508340272596397
pump_3           8/28/2015  10:30      0.6449636304205859
pump_3           8/28/2015  10:40      0.428518150877791
pump_3           8/28/2015  10:50      0.7602316004132579
pump_3           8/28/2015  11:00      0.33651282445024405
pump_3           8/28/2015  11:10      0.6309499373895623
pump_3           8/28/2015  11:20      0.4482393613209553
pump_3           8/28/2015  11:30      0.6178368446321932
pump_3           8/28/2015  11:40      0.48162857197469355
pump_3           8/28/2015  11:50      0.44672790607951823
pump_3           8/28/2015  12:00      0.5059389981233731
pump_3           8/28/2015  12:10      0.5057056135535986
pump_3           8/28/2015  12:20      0.6247319806665417
pump_3           8/28/2015  12:30      0.6402093374190436
pump_3           8/28/2015  12:40      0.4628651805400341
pump_3           8/28/2015  12:50      0.5239462675469881
pump_3           8/28/2015  13:00      0.3433584683106253
pump_3           8/28/2015  13:10      0.6737584506839127
pump_3           8/28/2015  13:20      0.476598119294625
pump_3           8/28/2015  13:30      0.3745805911944452
pump_3           8/28/2015  13:40      0.5088282256354243
pump_3           8/28/2015  13:50      0.6691692125880347
pump_3           8/28/2015  14:00      0.6200373989061545
pump_3           8/28/2015  14:10      0.48541196872329107
pump_3           8/28/2015  14:20      0.8025269937505692
pump_3           8/28/2015  14:30      0.24969433426532706
pump_3           8/28/2015  14:40      0.47296013183184565
pump_3           8/28/2015  14:50      0.48572307628507316
pump_3           8/28/2015  15:00      0.5009386676880156
pump_3           8/28/2015  15:10      0.6475085945115613
pump_3           8/28/2015  15:20      0.646413516960305
pump_3           8/28/2015  15:30      0.6630331221170744
pump_3           8/28/2015  15:40      0.7081291221507815
;
pump_4           8/28/2015  08:10      1.1925256665912678
pump_4           8/28/2015  08:20      1.1489088066782704
pump_4           8/28/2015  08:30      1.1460996831214005
pump_4           8/28/2015  08:40      1.286116191503639
pump_4           8/28/2015  08:50      1.219196508344365
pump_4           8/28/2015  09:00      1.1887635325285066
pump_4           8/28/2015  09:10      1.1053138261298903
pump_4           8/28/2015  09:20      1.1687094486442782
pump_4           8/28/2015  09:30      1.305283561178991
pump_4           8/28/2015  09:40      1.203126576060112
pump_4           8/28/2015  09:50      1.283134637045354
pump_4           8/28/2015  10:00      1.2193716476642766
pump_4           8/28/2015  10:10      1.0699982549598765
pump_4           8/28/2015  10:20      1.156040272596397
pump_4           8/28/2015  10:30      1.292663630420586
pump_4           8/28/2015  10:40      1.076218150877791
pump_4           8/28/2015  10:50      1.4079316004132578