[TITLE]
;;Project Title/Notes

[OPTIONS]
;;Option             Value
FLOW_UNITS           CMS
INFILTRATION         HORTON
FLOW_ROUTING         DYNWAVE
LINK_OFFSETS         DEPTH
MIN_SLOPE            0
ALLOW_PONDING        YES
SKIP_STEADY_STATE    NO

START_DATE           08/28/2015
START_TIME           08:00
REPORT_START_DATE    08/28/2015
REPORT_START_TIME    08:00
END_DATE             08/28/2015
END_TIME             15:50
SWEEP_START          01/01
SWEEP_END            12/31
DRY_DAYS             0
REPORT_STEP          00:01:00
WET_STEP             00:01:00
DRY_STEP             00:01:00
ROUTING_STEP         0:00:05 
RULE_STEP            00:00:00

INERTIAL_DAMPING     PARTIAL
NORMAL_FLOW_LIMITED  BOTH
FORCE_MAIN_EQUATION  H-W
VARIABLE_STEP        0.75
LENGTHENING_STEP     0
MIN_SURFAREA         1.167
MAX_TRIALS           8
HEAD_TOLERANCE       0.0015
SYS_FLOW_TOL         5
LAT_FLOW_TOL         5
MINIMUM_STEP         0.5
THREADS              1

[EVAPORATION]
;;Data Source    Parameters
;;-------------- ----------------
CONSTANT         0.0
DRY_ONLY         NO

[RAINGAGES]
;;Name           Format    Interval SCF      Source    
;;-------------- --------- ------ ------ ----------
RG1              INTENSITY 0:01     1.0      TIMESERIES Oneyear-2h      
RG2              INTENSITY 0:01     1.0      TIMESERIES Oneyear-2h      
RG3              INTENSITY 0:01     1.0      TIMESERIES Oneyear-2h      
RG4              INTENSITY 0:01     1.0      TIMESERIES Oneyear-2h      

[SUBCATCHMENTS]
;;Name           Rain Gage        Outlet           Area     %Imperv  Width    %Slope   CurbLen  SnowPack        
;;-------------- ---------------- ---------------- -------- -------- -------- -------- -------- ----------------
SC01             RG4              J16              33       100      2400     0.8      0.0                      
SC02             RG3              J13              22.75    100      1500     0.8      0                        
SC03             RG1              J10              18       100      2000     0.5      0                        
SC04             RG3              J5               6.9      100      200      0.7      0                        
SC05             RG4              J1               15.6     100      1000     0.5      0                        
SC06             RG2              J8               32.55    100      985      0.5      0                        
SC07             RG3              CSO7             4.75     100      360      0.51     0                        
SC08             RG1              CSO8             28       100      1950     0.45     0                        
SC09             RG2              CSO9             6.9      100      650      0.4      0                        
SC010            RG4              CSO10            11.75    100      650      0.5      0                        

[SUBAREAS]
;;Subcatchment   N-Imperv   N-Perv     S-Imperv   S-Perv     PctZero    RouteTo    PctRouted 
;;-------------- ---------- ---------- ---------- ---------- ---------- ---------- ----------
SC01             0.009      0.10       0.05       0.05       0.0        OUTLET    
SC02             0.009      0.1        0.05       0.05       0          OUTLET    
SC03             0.007      0.1        0.05       0.05       0          OUTLET    
SC04             0.009      0.1        0.05       0.05       0          OUTLET    
SC05             0.007      0.1        0.05       0.05       0          OUTLET    
SC06             0.01       0.1        0.05       0.05       0          OUTLET    
SC07             0.02       0.1        0.05       0.05       0          OUTLET    
SC08             0.01       0.1        0.05       0.05       0          OUTLET    
SC09             0.016      0.1        0.05       0.05       0          OUTLET    
SC010            0.008      0.1        0.05       0.05       0          OUTLET    

[INFILTRATION]
;;Subcatchment   MaxRate    MinRate    Decay      DryTime    MaxInfil  
;;-------------- ---------- ---------- ---------- ---------- ----------
SC01             3.0        0.5        4          7          0         
SC02             3.0        0.5        4          7          0         
SC03             3.0        0.5        4          7          0         
SC04             3.0        0.5        4          7          0         
SC05             3.0        0.5        4          7          0         
SC06             3.0        0.5        4          7          0         
SC07             3.0        0.5        4          7          0         
SC08             3.0        0.5        4          7          0         
SC09             3.0        0.5        4          7          0         
SC010            3.0        0.5        4          7          0         

[JUNCTIONS]
;;Name           Elevation  MaxDepth   InitDepth  SurDepth   Aponded   
;;-------------- ---------- ---------- ---------- ---------- ----------
J1               34.000000  2          0.000000   05.000000  0.000000  
J3               18.000000  2          0.000000   0.000000   0.000000  
CSO7             34.00000   1.2        0.000000   0.000000   0.000     
J5               32.00000   2.000000   0.000000   0.000000   0.000000  
CSO9             40.000000  2          0.000000   0.000000   0.000000  
J8               36.000000  3.000000   0.000000   0.000000   0.000000  
CSO8             32.000000  2          0.000000   0.00000    0.00000   
J10              29.000000  2.000000   0.000000   0.000000   0.000000  
J13              29.000000  2.000000   0.000000   0.000000   0.000000  
J15              15.000000  3.000000   0.000000   0.000000   0.000000  
J16              30.000000  2.000000   0.000000   0.000000   0.000000  
CSO10            30.000000  1.00000    0.000000   0.000000   0.000000  
J12              26.000000  2.000000   0.000000   0.000000   0.000000  
J4               33         2.0        0.00000    0.00000    0.00000   
J6               25         2          0.0000     0.0000     0.0000    
J2               25         2          0.00000    0.00000    0.00000   
J19              8          2          0.0000     0.0000     0.0000    
J9               29         2          0.0000     0.0000     0.0000    
J14              20         2          0.0000     0.0000     0.0000    
J17              20         2          0.0000     0.0000     0.0000    
J7               39         2          0.00000    0.00000    0.00000   
J11              31         2          0.0000     0.0000     0.0000    
J18              29         2          0.0000     0.0000     0.0000    

[OUTFALLS]
;;Name           Elevation  Type       Stage Data       Gated    Route To        
;;-------------- ---------- ---------- ---------------- -------- ----------------
Out_to_WWTP      6          FREE                        NO                       

[STORAGE]
;;Name           Elev.    MaxDepth   InitDepth  Shape      Curve Name/Params            N/A      Fevap    Psi      Ksat     IMD     
;;-------------- -------- ---------- ----------- ---------- ---------------------------- -------- --------          -------- --------
T5               27.000000 5.000000   0.000000   TABULAR    Tank5                        0.000000 0.000000
T4               27.000000 5.000000   0.000000   TABULAR    Tank4                        0.000000 0.000000
T6               31.000000 5.000000   0.000000   TABULAR    Tank6                        0        0       
T3               22.000000 5.000000   0.000000   TABULAR    Tank3                        0.000000 0.000000
T2               21.000000 5.000000   0.000000   TABULAR    Tank2                        0.000000 0.000000
T1               10.000000 5.000000   0.000000   TABULAR    Tank1                        0.000000 0.000000

[CONDUITS]
;;Name           From Node        To Node          Length     Roughness  InOffset   OutOffset  InitFlow   MaxFlow   
;;-------------- ---------------- ---------------- ---------- ---------- ---------- ---------- ---------- ----------
C1               J2               J3               400        0.013      0.00000    0.00000    0.00000    0         
C6               J4               J5               400        0.01       0.00000    0.00000    0.00000    0         
C2               J6               J3               400        0.012      0.00000    0.00000    0.00000    0         
C9               J7               J8               500        0.013      0.00000    0.00000    0.00000    0         
C16              J11              J10              500        0.012      0.0000     0.0000     0.00000    0         
C3               J14              J3               200        0.012      0.000      0.000      0.00000    0         
C19              J17              J15              400        0.012      0.00000    0.00000    0.00000    0         
C11              J3               J15              200        0.012      0.0000     0.0000     0.00000    0         
C20              J16              J15              400        0.012      0.0000     0.0000     0.00000    0         
C22              J18              J15              500        0.013      0.0000     0.0000     0.00000    0         
C12              J9               J12              500        0.012      0.00000    0.00000    0.00000    0         
C17              J10              J12              200        0.012      0.0000     0.0000     0.00000    0         
C10              J8               T6               310.5      0.012      0.00000    0.00000    0.00000    0         
C13              J12              T3               375        0.012      0          0          0.00000    0         
C18              J13              T2               257        0.013      0.0000     0.0000     0.00000    0         
C23              J15              T1               305        0.013      0.0000     0.0000     0.00000    0         
C4               J1               T5               278        0.012      0.0000     0.0000     0.00000    0         
C7               J5               T4               204        0.012      0.00000    0.00000    0.00000    0         
C14              J19              Out_to_WWTP      200        0.011      0.0000     0.0000     0.0000     0         
C5               CSO7             J4               100        0.014      0.0000     0.0000     0.0000     0         
C8               CSO9             J7               100        0.0185     0.0000     0.0000     0.00000    0         
C15              CSO8             J11              100        0.012      0.0000     0.0000     0.0000     0         
C21              CSO10            J18              100        0.02       0.00000    0.00000    0.00000    0         

[ORIFICES]
;;Name           From Node        To Node          Type         Offset     Qcoeff     Gated    CloseTime 
;;-------------- ---------------- ---------------- ------------ ---------- ---------- -------- ----------
V4               T4               J6               SIDE         0.00000    1          NO       0         
V5               T5               J2               SIDE         0.0000     1          NO       0         
V1               T1               J19              SIDE         0.00000    1          NO       0         
V6               T6               J9               SIDE         0.0000     1          NO       0         
V3               T3               J14              SIDE         0.0000     1          NO       0         
V2               T2               J17              SIDE         0.0000     1          NO       0         

[XSECTIONS]
;;Link           Shape        Geom1            Geom2      Geom3      Geom4      Barrels    Culvert   
;;-------------- ------------ ---------------- ---------- ---------- ---------- ---------- ----------
C1               CIRCULAR     1                0          0          0          1                    
C6               CIRCULAR     0.3              0          0          0          1                    
C2               CIRCULAR     0.6              0          0          0          1                    
C9               CIRCULAR     0.5              0          0          0          1                    
C16              CIRCULAR     2                0          0          0          1                    
C3               CIRCULAR     1                0          0          0          1                    
C19              CIRCULAR     1                0          0          0          1                    
C11              CIRCULAR     2                0          0          0          1                    
C20              CIRCULAR     2                0          0          0          1                    
C22              CIRCULAR     0.8              0          0          0          1                    
C12              CIRCULAR     2                0          0          0          1                    
C17              CIRCULAR     2                0          0          0          1                    
C10              CIRCULAR     1.5              0          0          0          1                    
C13              CIRCULAR     2                0          0          0          1                    
C18              CIRCULAR     2                0          0          0          1                    
C23              CIRCULAR     1.5              0          0          0          1                    
C4               CIRCULAR     1                0          0          0          1                    
C7               CIRCULAR     1                0          0          0          1                    
C14              CIRCULAR     2                0          0          0          1                    
C5               CIRCULAR     0.2555           0          0          0          1                    
C8               CIRCULAR     0.318            0          0          0          1                    
C15              CIRCULAR     0.453            0          0          0          1                    
C21              CIRCULAR     0.44             0          0          0          1                    
V4               RECT_CLOSED  0.0264           0.3048     0          0
V5               RECT_CLOSED  0.013            0.3048     0          0
V1               RECT_CLOSED  0.09             0.3048     0          0
V6               RECT_CLOSED  0.0581           0.3048     0          0
V3               RECT_CLOSED  0.063            0.3048     0          0
V2               RECT_CLOSED  0.0465           0.3048     0          0

[LOSSES]
;;Link           Kentry     Kexit      Kavg       Flap Gate  Seepage   
;;-------------- ---------- ---------- ---------- ---------- ----------
C1               0.00000    0.00000    0.00000    NO         0.00000   
C6               0.00000    0.00000    0.00000    NO         0.00000   
C2               0.00000    0.00000    0.00000    NO         0.00000   
C9               0.00000    0.00000    0.00000    NO         0.00000   
C16              0.00000    0.00000    0.00000    NO         0         
C3               0.00000    0.00000    0.00000    NO         0         
C19              0.00000    0.00000    0.00000    NO         0.00000   
C11              0.00000    0.00000    0.00000    NO         0.00000   
C20              0.00000    0.00000    0.00000    NO         0.0000    
C22              0.00000    0.00000    0.00000    NO         0.0000    
C12              0.00000    0.00000    0.00000    NO         0.00000   
C17              0.00000    0.00000    0.00000    NO         0.0000    
C10              0.00000    0.00000    0.00000    NO         0.00000   
C13              0.00000    0.00000    0.00000    NO         0         
C18              0.00000    0.00000    0.00000    NO         0.0000    
C23              0.00000    0.00000    0.00000    NO         0.0000    
C4               0.00000    0.00000    0.00000    NO         0.00000   
C7               0.00000    0.00000    0.00000    NO         0.00000   
C14              0.0000     0.0000     0.0000     NO         0.0000    
C5               0.00000    0.00000    0.00000    NO         0.00000   
C8               0.00000    0.00000    0.00000    NO         0.00000   
C15              0.0000     0.0000     0.0000     NO         0.0000    
C21              0.00000    0.00000    0.00000    NO         0.00000   

[CONTROLS]
RULE R0
IF SIMULATION TIME > 0
THEN ORIFICE V1 SETTING = TIMESERIES pump_0

RULE R1
IF SIMULATION TIME > 0
THEN ORIFICE V2 SETTING = TIMESERIES pump_1

RULE R2
IF SIMULATION TIME > 0
THEN ORIFICE V3 SETTING = TIMESERIES pump_2

RULE R3
IF SIMULATION TIME > 0
THEN ORIFICE V4 SETTING = TIMESERIES pump_3

RULE R4
IF SIMULATION TIME > 0
THEN ORIFICE V5 SETTING = TIMESERIES pump_4

RULE R5
IF SIMULATION TIME > 0
THEN ORIFICE V6 SETTING = TIMESERIES pump_5



[DWF]
;;Node           Constituent      Baseline   Patterns  
;;-------------- ---------------- ---------- ----------
J1               FLOW             0.01269    "" "DWF"
CSO7             FLOW             0.00656    "" "DWF"
J5               FLOW             0.00288    "" "DWF"
CSO9             FLOW             0.00443    "" "DWF"
J8               FLOW             0.02126    "" "DWF"
CSO8             FLOW             0.00518    "DWFCommercial0"
J10              FLOW             0.00871    "" "DWF"
J13              FLOW             0.01056    "" "DWF"
J16              FLOW             0.01251    "" "DWF"
CSO10            FLOW             0.00314    "" "DWF"

[CURVES]
;;Name           Type       X-Value    Y-Value   
;;-------------- ---------- ---------- ----------
Tank1            Storage    0          140       
Tank1                       5          140       
;
Tank2            Storage    0          200       
Tank2                       5          200       
;
Tank3            Storage    0          520       
Tank3                       5          520       
;
Tank4            Storage    0          100       
Tank4                       5          100       
;
Tank5            Storage    0          100       
Tank5                       5          100       
;
Tank6            Storage    0          120       
Tank6                       5          120       

[TIMESERIES]
;;Name           Date       Time       Value     
;;-------------- ---------- ---------- ----------
pump_0           8/28/2015  08:10      3.3612518735933956
pump_0           8/28/2015  08:20      3.1109287051042394
pump_0           8/28/2015  08:30      4.495705991949061
pump_0           8/28/2015  08:40      2.813151431109901
pump_0           8/28/2015  08:50      5.225547896299297
pump_0           8/28/2015  09:00      4.689316108065973
pump_0           8/28/2015  09:10      3.607175125454752
pump_0           8/28/2015  09:20      4.421684989044115
pump_0           8/28/2015  09:30      4.265761937773785
pump_0           8/28/2015  09:40      5.852487172461769
pump_0           8/28/2015  09:50      3.47599438280841
pump_0           8/28/2015  10:00      4.604384681363422
pump_0           8/28/2015  10:10      3.3354052377760683
pump_0           8/28/2015  10:20      4.380187109032029
pump_0           8/28/2015  10:30      2.839453813109035
pump_0           8/28/2015  10:40      4.251093312124453
pump_0           8/28/2015  10:50      3.264895730097503
pump_0           8/28/2015  11:00      4.462974552341455
pump_0           8/28/2015  11:10      5.648758387079727
pump_0           8/28/2015  11:20      4.90565949239252
pump_0           8/28/2015  11:30      4.623906718310877
pump_0           8/28/2015  11:40      3.651836128285707
pump_0           8/28/2015  11:50      2.6591986137551586
pump_0           8/28/2015  12:00      2.8140488355960773
pump_0           8/28/2015  12:10      3.1215566800490273
pump_0           8/28/2015  12:20      5.1844413167798304
pump_0           8/28/2015  12:30      3.9676849517801807
pump_0           8/28/2015  12:40      3.991367757614601
pump_0           8/28/2015  12:50      2.7843822189152396
pump_0           8/28/2015  13:00      3.8625748527351313
pump_0           8/28/2015  13:10      4.236126736282138
pump_0           8/28/2015  13:20      5.901258793450937
pump_0           8/28/2015  13:30      3.956495538726825
pump_0           8/28/2015  13:40      3.972244659827385
pump_0           8/28/2015  13:50      3.3345690494233837
pump_0           8/28/2015  14:00      5.989527868563961
pump_0           8/28/2015  14:10      4.212849475151064
pump_0           8/28/2015  14:20      4.373464554404006
pump_0           8/28/2015  14:30      3.7090099640113916
pump_0           8/28/2015  14:40      3.988834589104949
pump_0           8/28/2015  14:50      2.149183833046449
pump_0           8/28/2015  15:00      4.036370198074682
pump_0           8/28/2015  15:10      6.290679988148705
pump_0           8/28/2015  15:20      5.374054297521581
pump_0           8/28/2015  15:30      4.680996509674587
pump_0           8/28/2015  15:40      4.142573037767976
;
pump_1           8/28/2015  08:10      2.5978518735933958
pump_1           8/28/2015  08:20      2.3475287051042395
pump_1           8/28/2015  08:30      3.7323059919490604
pump_1           8/28/2015  08:40      2.049751431109901
pump_1           8/28/2015  08:50      4.462147896299297
pump_1           8/28/2015  09:00      3.925916108065973
pump_1           8/28/2015  09:10      2.8437751254547523
pump_1           8/28/2015  09:20      3.6582849890441156
pump_1           8/28/2015  09:30      3.5023619377737853
pump_1           8/28/2015  09:40      5.0890871724617694
pump_1           8/28/2015  09:50      2.71259438280841
pump_1           8/28/2015  10:00      3.8409846813634223
pump_1           8/28/2015  10:10      2.5720052377760685
pump_1           8/28/2015  10:20      3.4876871090320294
pump_1           8/28/2015  10:30      1.9469538131090351
pump_1           8/28/2015  10:40      3.358593312124453
pump_1           8/28/2015  10:50      2.372395730097503
pump_1           8/28/2015  11:00      3.6995745523414554
pump_1           8/28/2015  11:10      4.8853583870797275
pump_1           8/28/2015  11:20      4.142259492392519
pump_1           8/28/2015  11:30      3.860506718310878
pump_1           8/28/2015  11:40      2.888436128285707
pump_1           8/28/2015  11:50      1.8957986137551588
pump_1           8/28/2015  12:00      2.0506488355960775
pump_1           8/28/2015  12:10      2.3581566800490275
pump_1           8/28/2015  12:20      4.421041316779831
pump_1           8/28/2015  12:30      3.204284951780181
pump_1           8/28/2015  12:40      3.2279677576146013
pump_1           8/28/2015  12:50      2.0209822189152398
pump_1           8/28/2015  13:00      3.0991748527351315
pump_1           8/28/2015  13:10      3.343626736282138
pump_1           8/28/2015  13:20      5.008758793450937
pump_1           8/28/2015  13:30      3.0639955387268247
pump_1           8/28/2015  13:40      3.079744659827385
pump_1           8/28/2015  13:50      2.4420690494233837
pump_1           8/28/2015  14:00      5.097027868563961
pump_1           8/28/2015  14:10      3.320349475151064
pump_1           8/28/2015  14:20      3.480964554404005
pump_1           8/28/2015  14:30      2.8165099640113915
pump_1           8/28/2015  14:40      3.096334589104949
pump_1           8/28/2015  14:50      1.256683833046449
pump_1           8/28/2015  15:00      3.1438701980746817
pump_1           8/28/2015  15:10      5.398179988148705
pump_1           8/28/2015  15:20      4.481554297521581
pump_1           8/28/2015  15:30      3.7884965096745877
pump_1           8/28/2015  15:40      3.2500730377679763
;
pump_2           8/28/2015  08:10      3.0120518735933954
pump_2           8/28/2015  08:20      2.7617287051042396
pump_2           8/28/2015  08:30      4.14650599194906
pump_2           8/28/2015  08:40      2.4639514311099013
pump_2           8/28/2015  08:50      4.541447896299297
pump_2           8/28/2015  09:00      4.005216108065973
pump_2           8/28/2015  09:10      2.9230751254547522
pump_2           8/28/2015  09:20      3.7375849890441155
pump_2           8/28/2015  09:30      3.5816619377737853
pump_2           8/28/2015  09:40      5.168387172461769
pump_2           8/28/2015  09:50      2.79189438280841
pump_2           8/28/2015  10:00      3.9202846813634222
pump_2           8/28/2015  10:10      2.6513052377760684
pump_2           8/28/2015  10:20      4.030987109032029
pump_2           8/28/2015  10:30      2.4902538131090353
pump_2           8/28/2015  10:40      3.901893312124453
pump_2           8/28/2015  10:50      2.915695730097503
pump_2           8/28/2015  11:00      3.7788745523414553
pump_2           8/28/2015  11:10      4.964658387079727
pump_2           8/28/2015  11:20      4.221559492392519
pump_2           8/28/2015  11:30      3.939806718310878
pump_2           8/28/2015  11:40      2.967736128285707
pump_2           8/28/2015  11:50      1.975098613755159
pump_2           8/28/2015  12:00      2.4648488355960776
pump_2           8/28/2015  12:10      2.772356680049027
pump_2           8/28/2015  12:20      4.835241316779831
pump_2           8/28/2015  12:30      3.6184849517801805
pump_2           8/28/2015  12:40      3.642167757614601
pump_2           8/28/2015  12:50      2.43518221891524
pump_2           8/28/2015  13:00      3.513374852735131
pump_2           8/28/2015  13:10      3.8869267362821383
pump_2           8/28/2015  13:20      5.552058793450938
pump_2           8/28/2015  13:30      3.6072955387268246
pump_2           8/28/2015  13:40      3.623044659827385
pump_2           8/28/2015  13:50      2.985369049423384
pump_2           8/28/2015  14:00      5.640327868563961
pump_2           8/28/2015  14:10      3.863649475151064
pump_2           8/28/2015  14:20      4.024264554404005
pump_2           8/28/2015  14:30      3.359809964011392
pump_2           8/28/2015  14:40      3.639634589104949
pump_2           8/28/2015  14:50      1.799983833046449
pump_2           8/28/2015  15:00      3.687170198074682
pump_2           8/28/2015  15:10      5.941479988148705
pump_2           8/28/2015  15:20      5.024854297521581
pump_2           8/28/2015  15:30      4.331796509674588
pump_2           8/28/2015  15:40      3.793373037767976
;
pump_3           8/28/2015  08:10      2.5506518735933956
pump_3           8/28/2015  08:20      2.3003287051042394
pump_3           8/28/2015  08:30      3.6851059919490603
pump_3           8/28/2015  08:40      2.002551431109901
pump_3           8/28/2015  08:50      4.414947896299297
pump_3           8/28/2015  09:00      3.878716108065973
pump_3           8/28/2015  09:10      2.796575125454752
pump_3           8/28/2015  09:20      3.6110849890441155
pump_3           8/28/2015  09:30      3.455161937773785
pump_3           8/28/2015  09:40      5.041887172461769
pump_3           8/28/2015  09:50      2.66539438280841
pump_3           8/28/2015  10:00      3.793784681363422
pump_3           8/28/2015  10:10      2.5248052377760684
pump_3           8/28/2015  10:20      3.5695871090320295
pump_3           8/28/2015  10:30      2.028853813109035
pump_3           8/28/2015  10:40      3.440493312124453
pump_3           8/28/2015  10:50      2.454295730097503
pump_3           8/28/2015  11:00      3.6523745523414552
pump_3           8/28/2015  11:10      4.838158387079727
pump_3           8/28/2015  11:20      4.095059492392519
pump_3           8/28/2015  11:30      3.8133067183108778
pump_3           8/28/2015  11:40      2.841236128285707
pump_3           8/28/2015  11:50      1.8485986137551589
pump_3           8/28/2015  12:00      2.0034488355960773
pump_3           8/28/2015  12:10      2.3109566800490273
pump_3           8/28/2015  12:20      4.3738413167798305
pump_3           8/28/2015  12:30      3.1570849517801807
pump_3           8/28/2015  12:40      3.180767757614601
pump_3           8/28/2015  12:50      1.9737822189152399
pump_3           8/28/2015  13:00      3.0519748527351314
pump_3           8/28/2015  13:10      3.588426736282138
pump_3           8/28/2015  13:20      5.253558793450937
pump_3           8/28/2015  13:30      3.308795538726825
pump_3           8/28/2015  13:40      3.324544659827385
pump_3           8/28/2015  13:50      2.686869049423384
pump_3           8/28/2015  14:00      5.341827868563961
pump_3           8/28/2015  14:10      3.565149475151064
pump_3           8/28/2015  14:20      3.7257645544040052
pump_3           8/28/2015  14:30      3.0613099640113917
pump_3           8/28/2015  14:40      3.341134589104949
pump_3           8/28/2015  14:50      1.501483833046449
pump_3           8/28/2015  15:00      3.388670198074682
pump_3           8/28/2015  15:10      5.642979988148705
pump_3           8/28/2015  15:20      4.72635429752158
pump_3           8/28/2015  15:30      4.033296509674588
pump_3           8/28/2015  15:40      3.4948730377679764
;
pump_4           8/28/2015  08:10      3.3612518735933956
pump_4           8/28/2015  08:20      3.1109287051042394
pump_4           8/28/2015  08:30      4.495705991949061
pump_4           8/28/2015  08:40      2.813151431109901
pump_4           8/28/2015  08:50      5.225547896299297
pump_4           8/28/2015  09:00      4.689316108065973
pump_4           8/28/2015  09:10      3.607175125454752
pump_4           8/28/2015  09:20      4.421684989044115
pump_4           8/28/2015  09:30      4.265761937773785
pump_4           8/28/2015  09:40      5.852487172461769
pump_4           8/28/2015  09:50      3.47599438280841
pump_4           8/28/2015  10:00      4.604384681363422
pump_4           8/28/2015  10:10      3.3354052377760683
pump_4           8/28/2015  10:20      4.380187109032029
pump_4           8/28/2015  10:30      2.839453813109035
pump_4           8/28/2015  10:40      4.251093312124453
pump_4           8/28/2015  10:50      3.264895730097503
pump_4           8/28/2015  11:00      4.462974552341455
pump_4           8/28/2015  11:10      5.648758387079727