[TITLE]
;;Project Title/Notes

[OPTIONS]
;;Option             Value
FLOW_UNITS           CMS
INFILTRATION         HORTON
FLOW_ROUTING         DYNWAVE
LINK_OFFSETS         DEPTH
MIN_SLOPE            0
ALLOW_PONDING        YES
SKIP_STEADY_STATE    NO

START_DATE           08/28/2015
START_TIME           08:00
REPORT_START_DATE    08/28/2015
REPORT_START_TIME    08:00
END_DATE             08/28/2015
END_TIME             15:50
SWEEP_START          01/01
SWEEP_END            12/31
DRY_DAYS             0
REPORT_STEP          00:01:00
WET_STEP             00:01:00
DRY_STEP             00:01:00
ROUTING_STEP         0:00:05 
RULE_STEP            00:00:00

INERTIAL_DAMPING     PARTIAL
NORMAL_FLOW_LIMITED  BOTH
FORCE_MAIN_EQUATION  H-W
VARIABLE_STEP        0.75
LENGTHENING_STEP     0
MIN_SURFAREA         1.167
MAX_TRIALS           8
HEAD_TOLERANCE       0.0015
SYS_FLOW_TOL         5
LAT_FLOW_TOL         5
MINIMUM_STEP         0.5
THREADS              1

[EVAPORATION]
;;Data Source    Parameters
;;-------------- ----------------
CONSTANT         0.0
DRY_ONLY         NO

[RAINGAGES]
;;Name           Format    Interval SCF      Source    
;;-------------- --------- ------ ------ ----------
RG1              INTENSITY 0:01     1.0      TIMESERIES Oneyear-2h      
RG2              INTENSITY 0:01     1.0      TIMESERIES Oneyear-2h      
RG3              INTENSITY 0:01     1.0      TIMESERIES Oneyear-2h      
RG4              INTENSITY 0:01     1.0      TIMESERIES Oneyear-2h      

[SUBCATCHMENTS]
;;Name           Rain Gage        Outlet           Area     %Imperv  Width    %Slope   CurbLen  SnowPack        
;;-------------- ---------------- ---------------- -------- -------- -------- -------- -------- ----------------
SC01             RG4              J16              33       100      2400     0.8      0.0                      
SC02             RG3              J13              22.75    100      1500     0.8      0                        
SC03             RG1              J10              18       100      2000     0.5      0                        
SC04             RG3              J5               6.9      100      200      0.7      0                        
SC05             RG4              J1               15.6     100      1000     0.5      0                        
SC06             RG2              J8               32.55    100      985      0.5      0                        
SC07             RG3              CSO7             4.75     100      360      0.51     0                        
SC08             RG1              CSO8             28       100      1950     0.45     0                        
SC09             RG2              CSO9             6.9      100      650      0.4      0                        
SC010            RG4              CSO10            11.75    100      650      0.5      0                        

[SUBAREAS]
;;Subcatchment   N-Imperv   N-Perv     S-Imperv   S-Perv     PctZero    RouteTo    PctRouted 
;;-------------- ---------- ---------- ---------- ---------- ---------- ---------- ----------
SC01             0.009      0.10       0.05       0.05       0.0        OUTLET    
SC02             0.009      0.1        0.05       0.05       0          OUTLET    
SC03             0.007      0.1        0.05       0.05       0          OUTLET    
SC04             0.009      0.1        0.05       0.05       0          OUTLET    
SC05             0.007      0.1        0.05       0.05       0          OUTLET    
SC06             0.01       0.1        0.05       0.05       0          OUTLET    
SC07             0.02       0.1        0.05       0.05       0          OUTLET    
SC08             0.01       0.1        0.05       0.05       0          OUTLET    
SC09             0.016      0.1        0.05       0.05       0          OUTLET    
SC010            0.008      0.1        0.05       0.05       0          OUTLET    

[INFILTRATION]
;;Subcatchment   MaxRate    MinRate    Decay      DryTime    MaxInfil  
;;-------------- ---------- ---------- ---------- ---------- ----------
SC01             3.0        0.5        4          7          0         
SC02             3.0        0.5        4          7          0         
SC03             3.0        0.5        4          7          0         
SC04             3.0        0.5        4          7          0         
SC05             3.0        0.5        4          7          0         
SC06             3.0        0.5        4          7          0         
SC07             3.0        0.5        4          7          0         
SC08             3.0        0.5        4          7          0         
SC09             3.0        0.5        4          7          0         
SC010            3.0        0.5        4          7          0         

[JUNCTIONS]
;;Name           Elevation  MaxDepth   InitDepth  SurDepth   Aponded   
;;-------------- ---------- ---------- ---------- ---------- ----------
J1               34.000000  2          0.000000   05.000000  0.000000  
J3               18.000000  2          0.000000   0.000000   0.000000  
CSO7             34.00000   1.2        0.000000   0.000000   0.000     
J5               32.00000   2.000000   0.000000   0.000000   0.000000  
CSO9             40.000000  2          0.000000   0.000000   0.000000  
J8               36.000000  3.000000   0.000000   0.000000   0.000000  
CSO8             32.000000  2          0.000000   0.00000    0.00000   
J10              29.000000  2.000000   0.000000   0.000000   0.000000  
J13              29.000000  2.000000   0.000000   0.000000   0.000000  
J15              15.000000  3.000000   0.000000   0.000000   0.000000  
J16              30.000000  2.000000   0.000000   0.000000   0.000000  
CSO10            30.000000  1.00000    0.000000   0.000000   0.000000  
J12              26.000000  2.000000   0.000000   0.000000   0.000000  
J4               33         2.0        0.00000    0.00000    0.00000   
J6               25         2          0.0000     0.0000     0.0000    
J2               25         2          0.00000    0.00000    0.00000   
J19              8          2          0.0000     0.0000     0.0000    
J9               29         2          0.0000     0.0000     0.0000    
J14              20         2          0.0000     0.0000     0.0000    
J17              20         2          0.0000     0.0000     0.0000    
J7               39         2          0.00000    0.00000    0.00000   
J11              31         2          0.0000     0.0000     0.0000    
J18              29         2          0.0000     0.0000     0.0000    

[OUTFALLS]
;;Name           Elevation  Type       Stage Data       Gated    Route To        
;;-------------- ---------- ---------- ---------------- -------- ----------------
Out_to_WWTP      6          FREE                        NO                       

[STORAGE]
;;Name           Elev.    MaxDepth   InitDepth  Shape      Curve Name/Params            N/A      Fevap    Psi      Ksat     IMD     
;;-------------- -------- ---------- ----------- ---------- ---------------------------- -------- --------          -------- --------
T5               27.000000 5.000000   0.000000   TABULAR    Tank5                        0.000000 0.000000
T4               27.000000 5.000000   0.000000   TABULAR    Tank4                        0.000000 0.000000
T6               31.000000 5.000000   0.000000   TABULAR    Tank6                        0        0       
T3               22.000000 5.000000   0.000000   TABULAR    Tank3                        0.000000 0.000000
T2               21.000000 5.000000   0.000000   TABULAR    Tank2                        0.000000 0.000000
T1               10.000000 5.000000   0.000000   TABULAR    Tank1                        0.000000 0.000000

[CONDUITS]
;;Name           From Node        To Node          Length     Roughness  InOffset   OutOffset  InitFlow   MaxFlow   
;;-------------- ---------------- ---------------- ---------- ---------- ---------- ---------- ---------- ----------
C1               J2               J3               400        0.013      0.00000    0.00000    0.00000    0         
C6               J4               J5               400        0.01       0.00000    0.00000    0.00000    0         
C2               J6               J3               400        0.012      0.00000    0.00000    0.00000    0         
C9               J7               J8               500        0.013      0.00000    0.00000    0.00000    0         
C16              J11              J10              500        0.012      0.0000     0.0000     0.00000    0         
C3               J14              J3               200        0.012      0.000      0.000      0.00000    0         
C19              J17              J15              400        0.012      0.00000    0.00000    0.00000    0         
C11              J3               J15              200        0.012      0.0000     0.0000     0.00000    0         
C20              J16              J15              400        0.012      0.0000     0.0000     0.00000    0         
C22              J18              J15              500        0.013      0.0000     0.0000     0.00000    0         
C12              J9               J12              500        0.012      0.00000    0.00000    0.00000    0         
C17              J10              J12              200        0.012      0.0000     0.0000     0.00000    0         
C10              J8               T6               310.5      0.012      0.00000    0.00000    0.00000    0         
C13              J12              T3               375        0.012      0          0          0.00000    0         
C18              J13              T2               257        0.013      0.0000     0.0000     0.00000    0         
C23              J15              T1               305        0.013      0.0000     0.0000     0.00000    0         
C4               J1               T5               278        0.012      0.0000     0.0000     0.00000    0         
C7               J5               T4               204        0.012      0.00000    0.00000    0.00000    0         
C14              J19              Out_to_WWTP      200        0.011      0.0000     0.0000     0.0000     0         
C5               CSO7             J4               100        0.014      0.0000     0.0000     0.0000     0         
C8               CSO9             J7               100        0.0185     0.0000     0.0000     0.00000    0         
C15              CSO8             J11              100        0.012      0.0000     0.0000     0.0000     0         
C21              CSO10            J18              100        0.02       0.00000    0.00000    0.00000    0         

[ORIFICES]
;;Name           From Node        To Node          Type         Offset     Qcoeff     Gated    CloseTime 
;;-------------- ---------------- ---------------- ------------ ---------- ---------- -------- ----------
V4               T4               J6               SIDE         0.00000    1          NO       0         
V5               T5               J2               SIDE         0.0000     1          NO       0         
V1               T1               J19              SIDE         0.00000    1          NO       0         
V6               T6               J9               SIDE         0.0000     1          NO       0         
V3               T3               J14              SIDE         0.0000     1          NO       0         
V2               T2               J17              SIDE         0.0000     1          NO       0         

[XSECTIONS]
;;Link           Shape        Geom1            Geom2      Geom3      Geom4      Barrels    Culvert   
;;-------------- ------------ ---------------- ---------- ---------- ---------- ---------- ----------
C1               CIRCULAR     1                0          0          0          1                    
C6               CIRCULAR     0.3              0          0          0          1                    
C2               CIRCULAR     0.6              0          0          0          1                    
C9               CIRCULAR     0.5              0          0          0          1                    
C16              CIRCULAR     2                0          0          0          1                    
C3               CIRCULAR     1                0          0          0          1                    
C19              CIRCULAR     1                0          0          0          1                    
C11              CIRCULAR     2                0          0          0          1                    
C20              CIRCULAR     2                0          0          0          1                    
C22              CIRCULAR     0.8              0          0          0          1                    
C12              CIRCULAR     2                0          0          0          1                    
C17              CIRCULAR     2                0          0          0          1                    
C10              CIRCULAR     1.5              0          0          0          1                    
C13              CIRCULAR     2                0          0          0          1                    
C18              CIRCULAR     2                0          0          0          1                    
C23              CIRCULAR     1.5              0          0          0          1                    
C4               CIRCULAR     1                0          0          0          1                    
C7               CIRCULAR     1                0          0          0          1                    
C14              CIRCULAR     2                0          0          0          1                    
C5               CIRCULAR     0.2555           0          0          0          1                    
C8               CIRCULAR     0.318            0          0          0          1                    
C15              CIRCULAR     0.453            0          0          0          1                    
C21              CIRCULAR     0.44             0          0          0          1                    
V4               RECT_CLOSED  0.0264           0.3048     0          0
V5               RECT_CLOSED  0.013            0.3048     0          0
V1               RECT_CLOSED  0.09             0.3048     0          0
V6               RECT_CLOSED  0.0581           0.3048     0          0
V3               RECT_CLOSED  0.063            0.3048     0          0
V2               RECT_CLOSED  0.0465           0.3048     0          0

[LOSSES]
;;Link           Kentry     Kexit      Kavg       Flap Gate  Seepage   
;;-------------- ---------- ---------- ---------- ---------- ----------
C1               0.00000    0.00000    0.00000    NO         0.00000   
C6               0.00000    0.00000    0.00000    NO         0.00000   
C2               0.00000    0.00000    0.00000    NO         0.00000   
C9               0.00000    0.00000    0.00000    NO         0.00000   
C16              0.00000    0.00000    0.00000    NO         0         
C3               0.00000    0.00000    0.00000    NO         0         
C19              0.00000    0.00000    0.00000    NO         0.00000   
C11              0.00000    0.00000    0.00000    NO         0.00000   
C20              0.00000    0.00000    0.00000    NO         0.0000    
C22              0.00000    0.00000    0.00000    NO         0.0000    
C12              0.00000    0.00000    0.00000    NO         0.00000   
C17              0.00000    0.00000    0.00000    NO         0.0000    
C10              0.00000    0.00000    0.00000    NO         0.00000   
C13              0.00000    0.00000    0.00000    NO         0         
C18              0.00000    0.00000    0.00000    NO         0.0000    
C23              0.00000    0.00000    0.00000    NO         0.0000    
C4               0.00000    0.00000    0.00000    NO         0.00000   
C7               0.00000    0.00000    0.00000    NO         0.00000   
C14              0.0000     0.0000     0.0000     NO         0.0000    
C5               0.00000    0.00000    0.00000    NO         0.00000   
C8               0.00000    0.00000    0.00000    NO         0.00000   
C15              0.0000     0.0000     0.0000     NO         0.0000    
C21              0.00000    0.00000    0.00000    NO         0.00000   

[CONTROLS]
RULE R0
IF SIMULATION TIME > 0
THEN ORIFICE V1 SETTING = TIMESERIES pump_0

RULE R1
IF SIMULATION TIME > 0
THEN ORIFICE V2 SETTING = TIMESERIES pump_1

RULE R2
IF SIMULATION TIME > 0
THEN ORIFICE V3 SETTING = TIMESERIES pump_2

RULE R3
IF SIMULATION TIME > 0
THEN ORIFICE V4 SETTING = TIMESERIES pump_3

RULE R4
IF SIMULATION TIME > 0
THEN ORIFICE V5 SETTING = TIMESERIES pump_4

RULE R5
IF SIMULATION TIME > 0
THEN ORIFICE V6 SETTING = TIMESERIES pump_5



[DWF]
;;Node           Constituent      Baseline   Patterns  
;;-------------- ---------------- ---------- ----------
J1               FLOW             0.01269    "" "DWF"
CSO7             FLOW             0.00656    "" "DWF"
J5               FLOW             0.00288    "" "DWF"
CSO9             FLOW             0.00443    "" "DWF"
J8               FLOW             0.02126    "" "DWF"
CSO8             FLOW             0.00518    "DWFCommercial0"
J10              FLOW             0.00871    "" "DWF"
J13              FLOW             0.01056    "" "DWF"
J16              FLOW             0.01251    "" "DWF"
CSO10            FLOW             0.00314    "" "DWF"

[CURVES]
;;Name           Type       X-Value    Y-Value   
;;-------------- ---------- ---------- ----------
Tank1            Storage    0          140       
Tank1                       5          140       
;
Tank2            Storage    0          200       
Tank2                       5          200       
;
Tank3            Storage    0          520       
Tank3                       5          520       
;
Tank4            Storage    0          100       
Tank4                       5          100       
;
Tank5            Storage    0          100       
Tank5                       5          100       
;
Tank6            Storage    0          120       
Tank6                       5          120       

[TIMESERIES]
;;Name           Date       Time       Value     
;;-------------- ---------- ---------- ----------
pump_0           8/28/2015  08:10      1
pump_0           8/28/2015  08:20      1
pump_0           8/28/2015  08:30      1
pump_0           8/28/2015  08:40      1
pump_0           8/28/2015  08:50      1
pump_0           8/28/2015  09:00      1
pump_0           8/28/2015  09:10      1
pump_0           8/28/2015  09:20      1
pump_0           8/28/2015  09:30      1
pump_0           8/28/2015  09:40      1
pump_0           8/28/2015  09:50      1
pump_0           8/28/2015  10:00      1
pump_0           8/28/2015  10:10      1
pump_0           8/28/2015  10:20      1
pump_0           8/28/2015  10:30      1
pump_0           8/28/2015  10:40      1
pump_0           8/28/2015  10:50      1
pump_0           8/28/2015  11:00      1
pump_0           8/28/2015  11:10      1
pump_0           8/28/2015  11:20      1
pump_0           8/28/2015  11:30      1
pump_0           8/28/2015  11:40      1
pump_0           8/28/2015  11:50      1
pump_0           8/28/2015  12:00      1
pump_0           8/28/2015  12:10      1
pump_0           8/28/2015  12:20      1
pump_0           8/28/2015  12:30      1
pump_0           8/28/2015  12:40      1
pump_0           8/28/2015  12:50      1
pump_0           8/28/2015  13:00      1
pump_0           8/28/2015  13:10      1
pump_0           8/28/2015  13:20      1
pump_0           8/28/2015  13:30      1
pump_0           8/28/2015  13:40      1
pump_0           8/28/2015  13:50      1
pump_0           8/28/2015  14:00      1
pump_0           8/28/2015  14:10      1
pump_0           8/28/2015  14:20      1
pump_0           8/28/2015  14:30      1
pump_0           8/28/2015  14:40      1
pump_0           8/28/2015  14:50      1
pump_0           8/28/2015  15:00      1
pump_0           8/28/2015  15:10      1
pump_0           8/28/2015  15:20      1
pump_0           8/28/2015  15:30      1
pump_0           8/28/2015  15:40      1
;
pump_1           8/28/2015  08:10      0.14591393230106353
pump_1           8/28/2015  08:20      0.15445305995239356
pump_1           8/28/2015  08:30      0.14635781739868625
pump_1           8/28/2015  08:40      0.14560232833556283
pump_1           8/28/2015  08:50      0.16009133529599762
pump_1           8/28/2015  09:00      0.1399802256578906
pump_1           8/28/2015  09:10      0.14466947132078545
pump_1           8/28/2015  09:20      0.1345726259737549
pump_1           8/28/2015  09:30      0.14846739354596739
pump_1           8/28/2015  09:40      0.15819501001033792
pump_1           8/28/2015  09:50      0.28341401910133607
pump_1           8/28/2015  10:00      0.28394011809918906
pump_1           8/28/2015  10:10      0.28713042376022674
pump_1           8/28/2015  10:20      0.2828521818696731
pump_1           8/28/2015  10:30      0.284182594321492
pump_1           8/28/2015  10:40      0.2806372407707762
pump_1           8/28/2015  10:50      0.2668461145462886
pump_1           8/28/2015  11:00      0.2818609509966723
pump_1           8/28/2015  11:10      0.2860588637482411
pump_1           8/28/2015  11:20      0.2676809034478129
pump_1           8/28/2015  11:30      0.278959899810322
pump_1           8/28/2015  11:40      0.28742813071571116
pump_1           8/28/2015  11:50      0.2728652354461142
pump_1           8/28/2015  12:00      0.26338893426344134
pump_1           8/28/2015  12:10      0.2772153397186296
pump_1           8/28/2015  12:20      0.29253685559521686
pump_1           8/28/2015  12:30      0.2674705458072284
pump_1           8/28/2015  12:40      0.2755460992959442
pump_1           8/28/2015  12:50      0.2690896905282165
pump_1           8/28/2015  13:00      0.2730103270594295
pump_1           8/28/2015  13:10      0.27894771281050906
pump_1           8/28/2015  13:20      0.29136813608626183
pump_1           8/28/2015  13:30      0.2694335597403164
pump_1           8/28/2015  13:40      0.2695134500577167
pump_1           8/28/2015  13:50      0.26787497559611906
pump_1           8/28/2015  14:00      0.26566209554512177
pump_1           8/28/2015  14:10      0.2612529993978788
pump_1           8/28/2015  14:20      0.26808737800989474
pump_1           8/28/2015  14:30      0.2755418673052339
pump_1           8/28/2015  14:40      0.27700865386528406
pump_1           8/28/2015  14:50      0.2883244918752074
pump_1           8/28/2015  15:00      0.268383995154272
pump_1           8/28/2015  15:10      0.2688006187600776
pump_1           8/28/2015  15:20      0.26903162759477145
pump_1           8/28/2015  15:30      0.2785574591905481
pump_1           8/28/2015  15:40      0.2750152758333999
;
pump_2           8/28/2015  08:10      0.6892139323010635
pump_2           8/28/2015  08:20      0.6977530599523936
pump_2           8/28/2015  08:30      0.6896578173986863
pump_2           8/28/2015  08:40      0.6889023283355629
pump_2           8/28/2015  08:50      0.7033913352959976
pump_2           8/28/2015  09:00      0.6832802256578906
pump_2           8/28/2015  09:10      0.6879694713207855
pump_2           8/28/2015  09:20      0.677872625973755
pump_2           8/28/2015  09:30      0.6917673935459674
pump_2           8/28/2015  09:40      0.701495010010338
pump_2           8/28/2015  09:50      0.36271401910133605
pump_2           8/28/2015  10:00      0.6981401180991891
pump_2           8/28/2015  10:10      0.3664304237602268
pump_2           8/28/2015  10:20      0.36215218186967313
pump_2           8/28/2015  10:30      0.363482594321492
pump_2           8/28/2015  10:40      0.35993724077077616
pump_2           8/28/2015  10:50      0.3461461145462886
pump_2           8/28/2015  11:00      0.36116095099667234
pump_2           8/28/2015  11:10      0.36535886374824106
pump_2           8/28/2015  11:20      0.3469809034478129
pump_2           8/28/2015  11:30      0.358259899810322
pump_2           8/28/2015  11:40      0.3667281307157112
pump_2           8/28/2015  11:50      0.3521652354461142
pump_2           8/28/2015  12:00      0.3426889342634413
pump_2           8/28/2015  12:10      0.3565153397186296
pump_2           8/28/2015  12:20      0.3718368555952169
pump_2           8/28/2015  12:30      0.34677054580722844
pump_2           8/28/2015  12:40      0.3548460992959442
pump_2           8/28/2015  12:50      0.34838969052821656
pump_2           8/28/2015  13:00      0.35231032705942955
pump_2           8/28/2015  13:10      0.3582477128105091
pump_2           8/28/2015  13:20      0.37066813608626187
pump_2           8/28/2015  13:30      0.34873355974031645
pump_2           8/28/2015  13:40      0.34881345005771675
pump_2           8/28/2015  13:50      0.34717497559611904
pump_2           8/28/2015  14:00      0.3449620955451218
pump_2           8/28/2015  14:10      0.3405529993978788
pump_2           8/28/2015  14:20      0.3473873780098947
pump_2           8/28/2015  14:30      0.3548418673052339
pump_2           8/28/2015  14:40      0.3563086538652841
pump_2           8/28/2015  14:50      0.36762449187520746
pump_2           8/28/2015  15:00      0.34768399515427206
pump_2           8/28/2015  15:10      0.3481006187600776
pump_2           8/28/2015  15:20      0.34833162759477143
pump_2           8/28/2015  15:30      0.35785745919054807
pump_2           8/28/2015  15:40      0.35431527583339995
;
pump_3           8/28/2015  08:10      0.22781393230106356
pump_3           8/28/2015  08:20      0.23635305995239358
pump_3           8/28/2015  08:30      0.22825781739868625
pump_3           8/28/2015  08:40      0.22750232833556286
pump_3           8/28/2015  08:50      0.24199133529599762
pump_3           8/28/2015  09:00      0.22188022565789062
pump_3           8/28/2015  09:10      0.22656947132078548
pump_3           8/28/2015  09:20      0.21647262597375494
pump_3           8/28/2015  09:30      0.23036739354596739
pump_3           8/28/2015  09:40      0.24009501001033792
pump_3           8/28/2015  09:50      0.23621401910133608
pump_3           8/28/2015  10:00      0.2367401180991891
pump_3           8/28/2015  10:10      0.40283042376022676
pump_3           8/28/2015  10:20      0.3985521818696731
pump_3           8/28/2015  10:30      0.399882594321492
pump_3           8/28/2015  10:40      0.39633724077077614
pump_3           8/28/2015  10:50      0.38254611454628856
pump_3           8/28/2015  11:00      0.3975609509966723
pump_3           8/28/2015  11:10      0.40175886374824105
pump_3           8/28/2015  11:20      0.3833809034478129
pump_3           8/28/2015  11:30      0.394659899810322
pump_3           8/28/2015  11:40      0.4031281307157112
pump_3           8/28/2015  11:50      0.3885652354461142
pump_3           8/28/2015  12:00      0.3790889342634413
pump_3           8/28/2015  12:10      0.3929153397186296
pump_3           8/28/2015  12:20      0.4082368555952169
pump_3           8/28/2015  12:30      0.3831705458072284
pump_3           8/28/2015  12:40      0.39124609929594417
pump_3           8/28/2015  12:50      0.38478969052821654
pump_3           8/28/2015  13:00      0.38871032705942954
pump_3           8/28/2015  13:10      0.3946477128105091
pump_3           8/28/2015  13:20      0.40706813608626186
pump_3           8/28/2015  13:30      0.38513355974031643
pump_3           8/28/2015  13:40      0.38521345005771673
pump_3           8/28/2015  13:50      0.383574975596119
pump_3           8/28/2015  14:00      0.3813620955451218
pump_3           8/28/2015  14:10      0.3769529993978788
pump_3           8/28/2015  14:20      0.3837873780098947
pump_3           8/28/2015  14:30      0.3912418673052339
pump_3           8/28/2015  14:40      0.3927086538652841
pump_3           8/28/2015  14:50      0.40402449187520745
pump_3           8/28/2015  15:00      0.38408399515427205
pump_3           8/28/2015  15:10      0.3845006187600776
pump_3           8/28/2015  15:20      0.3847316275947714
pump_3           8/28/2015  15:30      0.39425745919054805
pump_3           8/28/2015  15:40      0.39071527583339993
;
pump_4           8/28/2015  08:10      1
pump_4           8/28/2015  08:20      1
pump_4           8/28/2015  08:30      1
pump_4           8/28/2015  08:40      1
pump_4           8/28/2015  08:50      1
pump_4           8/28/2015  09:00      1
pump_4           8/28/2015  09:10      1
pump_4           8/28/2015  09:20      1
pump_4           8/28/2015  09:30      1
pump_4           8/28/2015  09:40      1
pump_4           8/28/2015  09:50      1
pump_4           8/28/2015  10:00      1
pump_4           8/28/2015  10:10      1
pump_4           8/28/2015  10:20      1
pump_4           8/28/2015  10:30      1
pump_4           8/28/2015  10:40      1
pump_4           8/28/2015  10:50      1
pump_4           8/28/2015  11:00      1
pump_4           8/28/2015  11:10      1
pump_4           8/28/2015  11:20      1
pump_4           8/28/2015  11:30      1
pump_4           8/28/2015  11:40      1
pump_4           8/28/2015  11:50      1
pump_4           8/28/2015  12:00      1
pump_4           8/28/2015  12:10      1
pump_4           8/28/2015  12:20      1
pump_4           8/28/2015  12:30      1
pump_4           8/28/2015  12:40      1
pump_4           8/28/2015  12:50      1
pump_4           8/28/2015  13:00      1
pump_4           8/28/2015  13:10      1
pump_4           8/28/2015  13:20      1
pump_4           8/28/2015  13:30      1
pump_4           8/28/2015  13:40      1
pump_4           8/28/2015  13:50      1
pump_4           8/28/2015  14:00      1
pump_4           8/28/2015  14:10      1
pump_4           8/28/2015  14:20      1
pump_4           8/28/2015  14:30      1
pump_4           8/28/2015  14:40      1
pump_4           8/28/2015  14:50      1
pump_4           8/28/2015  15:00      1