[TITLE]
;;Project Title/Notes

[OPTIONS]
;;Option             Value
FLOW_UNITS           CMS
INFILTRATION         HORTON
FLOW_ROUTING         DYNWAVE
LINK_OFFSETS         DEPTH
MIN_SLOPE            0
ALLOW_PONDING        YES
SKIP_STEADY_STATE    NO

START_DATE           08/28/2015
START_TIME           08:00
REPORT_START_DATE    08/28/2015
REPORT_START_TIME    08:00
END_DATE             08/28/2015
END_TIME             15:50
SWEEP_START          01/01
SWEEP_END            12/31
DRY_DAYS             0
REPORT_STEP          00:01:00
WET_STEP             00:01:00
DRY_STEP             00:01:00
ROUTING_STEP         0:00:05 
RULE_STEP            00:00:00

INERTIAL_DAMPING     PARTIAL
NORMAL_FLOW_LIMITED  BOTH
FORCE_MAIN_EQUATION  H-W
VARIABLE_STEP        0.75
LENGTHENING_STEP     0
MIN_SURFAREA         1.167
MAX_TRIALS           8
HEAD_TOLERANCE       0.0015
SYS_FLOW_TOL         5
LAT_FLOW_TOL         5
MINIMUM_STEP         0.5
THREADS              1

[EVAPORATION]
;;Data Source    Parameters
;;-------------- ----------------
CONSTANT         0.0
DRY_ONLY         NO

[RAINGAGES]
;;Name           Format    Interval SCF      Source    
;;-------------- --------- ------ ------ ----------
RG1              INTENSITY 0:01     1.0      TIMESERIES Oneyear-2h      
RG2              INTENSITY 0:01     1.0      TIMESERIES Oneyear-2h      
RG3              INTENSITY 0:01     1.0      TIMESERIES Oneyear-2h      
RG4              INTENSITY 0:01     1.0      TIMESERIES Oneyear-2h      

[SUBCATCHMENTS]
;;Name           Rain Gage        Outlet           Area     %Imperv  Width    %Slope   CurbLen  SnowPack        
;;-------------- ---------------- ---------------- -------- -------- -------- -------- -------- ----------------
SC01             RG4              J16              33       100      2400     0.8      0.0                      
SC02             RG3              J13              22.75    100      1500     0.8      0                        
SC03             RG1              J10              18       100      2000     0.5      0                        
SC04             RG3              J5               6.9      100      200      0.7      0                        
SC05             RG4              J1               15.6     100      1000     0.5      0                        
SC06             RG2              J8               32.55    100      985      0.5      0                        
SC07             RG3              CSO7             4.75     100      360      0.51     0                        
SC08             RG1              CSO8             28       100      1950     0.45     0                        
SC09             RG2              CSO9             6.9      100      650      0.4      0                        
SC010            RG4              CSO10            11.75    100      650      0.5      0                        

[SUBAREAS]
;;Subcatchment   N-Imperv   N-Perv     S-Imperv   S-Perv     PctZero    RouteTo    PctRouted 
;;-------------- ---------- ---------- ---------- ---------- ---------- ---------- ----------
SC01             0.009      0.10       0.05       0.05       0.0        OUTLET    
SC02             0.009      0.1        0.05       0.05       0          OUTLET    
SC03             0.007      0.1        0.05       0.05       0          OUTLET    
SC04             0.009      0.1        0.05       0.05       0          OUTLET    
SC05             0.007      0.1        0.05       0.05       0          OUTLET    
SC06             0.01       0.1        0.05       0.05       0          OUTLET    
SC07             0.02       0.1        0.05       0.05       0          OUTLET    
SC08             0.01       0.1        0.05       0.05       0          OUTLET    
SC09             0.016      0.1        0.05       0.05       0          OUTLET    
SC010            0.008      0.1        0.05       0.05       0          OUTLET    

[INFILTRATION]
;;Subcatchment   MaxRate    MinRate    Decay      DryTime    MaxInfil  
;;-------------- ---------- ---------- ---------- ---------- ----------
SC01             3.0        0.5        4          7          0         
SC02             3.0        0.5        4          7          0         
SC03             3.0        0.5        4          7          0         
SC04             3.0        0.5        4          7          0         
SC05             3.0        0.5        4          7          0         
SC06             3.0        0.5        4          7          0         
SC07             3.0        0.5        4          7          0         
SC08             3.0        0.5        4          7          0         
SC09             3.0        0.5        4          7          0         
SC010            3.0        0.5        4          7          0         

[JUNCTIONS]
;;Name           Elevation  MaxDepth   InitDepth  SurDepth   Aponded   
;;-------------- ---------- ---------- ---------- ---------- ----------
J1               34.000000  2          0.000000   05.000000  0.000000  
J3               18.000000  2          0.000000   0.000000   0.000000  
CSO7             34.00000   1.2        0.000000   0.000000   0.000     
J5               32.00000   2.000000   0.000000   0.000000   0.000000  
CSO9             40.000000  2          0.000000   0.000000   0.000000  
J8               36.000000  3.000000   0.000000   0.000000   0.000000  
CSO8             32.000000  2          0.000000   0.00000    0.00000   
J10              29.000000  2.000000   0.000000   0.000000   0.000000  
J13              29.000000  2.000000   0.000000   0.000000   0.000000  
J15              15.000000  3.000000   0.000000   0.000000   0.000000  
J16              30.000000  2.000000   0.000000   0.000000   0.000000  
CSO10            30.000000  1.00000    0.000000   0.000000   0.000000  
J12              26.000000  2.000000   0.000000   0.000000   0.000000  
J4               33         2.0        0.00000    0.00000    0.00000   
J6               25         2          0.0000     0.0000     0.0000    
J2               25         2          0.00000    0.00000    0.00000   
J19              8          2          0.0000     0.0000     0.0000    
J9               29         2          0.0000     0.0000     0.0000    
J14              20         2          0.0000     0.0000     0.0000    
J17              20         2          0.0000     0.0000     0.0000    
J7               39         2          0.00000    0.00000    0.00000   
J11              31         2          0.0000     0.0000     0.0000    
J18              29         2          0.0000     0.0000     0.0000    

[OUTFALLS]
;;Name           Elevation  Type       Stage Data       Gated    Route To        
;;-------------- ---------- ---------- ---------------- -------- ----------------
Out_to_WWTP      6          FREE                        NO                       

[STORAGE]
;;Name           Elev.    MaxDepth   InitDepth  Shape      Curve Name/Params            N/A      Fevap    Psi      Ksat     IMD     
;;-------------- -------- ---------- ----------- ---------- ---------------------------- -------- --------          -------- --------
T5               27.000000 5.000000   0.000000   TABULAR    Tank5                        0.000000 0.000000
T4               27.000000 5.000000   0.000000   TABULAR    Tank4                        0.000000 0.000000
T6               31.000000 5.000000   0.000000   TABULAR    Tank6                        0        0       
T3               22.000000 5.000000   0.000000   TABULAR    Tank3                        0.000000 0.000000
T2               21.000000 5.000000   0.000000   TABULAR    Tank2                        0.000000 0.000000
T1               10.000000 5.000000   0.000000   TABULAR    Tank1                        0.000000 0.000000

[CONDUITS]
;;Name           From Node        To Node          Length     Roughness  InOffset   OutOffset  InitFlow   MaxFlow   
;;-------------- ---------------- ---------------- ---------- ---------- ---------- ---------- ---------- ----------
C1               J2               J3               400        0.013      0.00000    0.00000    0.00000    0         
C6               J4               J5               400        0.01       0.00000    0.00000    0.00000    0         
C2               J6               J3               400        0.012      0.00000    0.00000    0.00000    0         
C9               J7               J8               500        0.013      0.00000    0.00000    0.00000    0         
C16              J11              J10              500        0.012      0.0000     0.0000     0.00000    0         
C3               J14              J3               200        0.012      0.000      0.000      0.00000    0         
C19              J17              J15              400        0.012      0.00000    0.00000    0.00000    0         
C11              J3               J15              200        0.012      0.0000     0.0000     0.00000    0         
C20              J16              J15              400        0.012      0.0000     0.0000     0.00000    0         
C22              J18              J15              500        0.013      0.0000     0.0000     0.00000    0         
C12              J9               J12              500        0.012      0.00000    0.00000    0.00000    0         
C17              J10              J12              200        0.012      0.0000     0.0000     0.00000    0         
C10              J8               T6               310.5      0.012      0.00000    0.00000    0.00000    0         
C13              J12              T3               375        0.012      0          0          0.00000    0         
C18              J13              T2               257        0.013      0.0000     0.0000     0.00000    0         
C23              J15              T1               305        0.013      0.0000     0.0000     0.00000    0         
C4               J1               T5               278        0.012      0.0000     0.0000     0.00000    0         
C7               J5               T4               204        0.012      0.00000    0.00000    0.00000    0         
C14              J19              Out_to_WWTP      200        0.011      0.0000     0.0000     0.0000     0         
C5               CSO7             J4               100        0.014      0.0000     0.0000     0.0000     0         
C8               CSO9             J7               100        0.0185     0.0000     0.0000     0.00000    0         
C15              CSO8             J11              100        0.012      0.0000     0.0000     0.0000     0         
C21              CSO10            J18              100        0.02       0.00000    0.00000    0.00000    0         

[ORIFICES]
;;Name           From Node        To Node          Type         Offset     Qcoeff     Gated    CloseTime 
;;-------------- ---------------- ---------------- ------------ ---------- ---------- -------- ----------
V4               T4               J6               SIDE         0.00000    1          NO       0         
V5               T5               J2               SIDE         0.0000     1          NO       0         
V1               T1               J19              SIDE         0.00000    1          NO       0         
V6               T6               J9               SIDE         0.0000     1          NO       0         
V3               T3               J14              SIDE         0.0000     1          NO       0         
V2               T2               J17              SIDE         0.0000     1          NO       0         

[XSECTIONS]
;;Link           Shape        Geom1            Geom2      Geom3      Geom4      Barrels    Culvert   
;;-------------- ------------ ---------------- ---------- ---------- ---------- ---------- ----------
C1               CIRCULAR     1                0          0          0          1                    
C6               CIRCULAR     0.3              0          0          0          1                    
C2               CIRCULAR     0.6              0          0          0          1                    
C9               CIRCULAR     0.5              0          0          0          1                    
C16              CIRCULAR     2                0          0          0          1                    
C3               CIRCULAR     1                0          0          0          1                    
C19              CIRCULAR     1                0          0          0          1                    
C11              CIRCULAR     2                0          0          0          1                    
C20              CIRCULAR     2                0          0          0          1                    
C22              CIRCULAR     0.8              0          0          0          1                    
C12              CIRCULAR     2                0          0          0          1                    
C17              CIRCULAR     2                0          0          0          1                    
C10              CIRCULAR     1.5              0          0          0          1                    
C13              CIRCULAR     2                0          0          0          1                    
C18              CIRCULAR     2                0          0          0          1                    
C23              CIRCULAR     1.5              0          0          0          1                    
C4               CIRCULAR     1                0          0          0          1                    
C7               CIRCULAR     1                0          0          0          1                    
C14              CIRCULAR     2                0          0          0          1                    
C5               CIRCULAR     0.2555           0          0          0          1                    
C8               CIRCULAR     0.318            0          0          0          1                    
C15              CIRCULAR     0.453            0          0          0          1                    
C21              CIRCULAR     0.44             0          0          0          1                    
V4               RECT_CLOSED  0.0264           0.3048     0          0
V5               RECT_CLOSED  0.013            0.3048     0          0
V1               RECT_CLOSED  0.09             0.3048     0          0
V6               RECT_CLOSED  0.0581           0.3048     0          0
V3               RECT_CLOSED  0.063            0.3048     0          0
V2               RECT_CLOSED  0.0465           0.3048     0          0

[LOSSES]
;;Link           Kentry     Kexit      Kavg       Flap Gate  Seepage   
;;-------------- ---------- ---------- ---------- ---------- ----------
C1               0.00000    0.00000    0.00000    NO         0.00000   
C6               0.00000    0.00000    0.00000    NO         0.00000   
C2               0.00000    0.00000    0.00000    NO         0.00000   
C9               0.00000    0.00000    0.00000    NO         0.00000   
C16              0.00000    0.00000    0.00000    NO         0         
C3               0.00000    0.00000    0.00000    NO         0         
C19              0.00000    0.00000    0.00000    NO         0.00000   
C11              0.00000    0.00000    0.00000    NO         0.00000   
C20              0.00000    0.00000    0.00000    NO         0.0000    
C22              0.00000    0.00000    0.00000    NO         0.0000    
C12              0.00000    0.00000    0.00000    NO         0.00000   
C17              0.00000    0.00000    0.00000    NO         0.0000    
C10              0.00000    0.00000    0.00000    NO         0.00000   
C13              0.00000    0.00000    0.00000    NO         0         
C18              0.00000    0.00000    0.00000    NO         0.0000    
C23              0.00000    0.00000    0.00000    NO         0.0000    
C4               0.00000    0.00000    0.00000    NO         0.00000   
C7               0.00000    0.00000    0.00000    NO         0.00000   
C14              0.0000     0.0000     0.0000     NO         0.0000    
C5               0.00000    0.00000    0.00000    NO         0.00000   
C8               0.00000    0.00000    0.00000    NO         0.00000   
C15              0.0000     0.0000     0.0000     NO         0.0000    
C21              0.00000    0.00000    0.00000    NO         0.00000   

[CONTROLS]
RULE R0
IF SIMULATION TIME > 0
THEN ORIFICE V1 SETTING = TIMESERIES pump_0

RULE R1
IF SIMULATION TIME > 0
THEN ORIFICE V2 SETTING = TIMESERIES pump_1

RULE R2
IF SIMULATION TIME > 0
THEN ORIFICE V3 SETTING = TIMESERIES pump_2

RULE R3
IF SIMULATION TIME > 0
THEN ORIFICE V4 SETTING = TIMESERIES pump_3

RULE R4
IF SIMULATION TIME > 0
THEN ORIFICE V5 SETTING = TIMESERIES pump_4

RULE R5
IF SIMULATION TIME > 0
THEN ORIFICE V6 SETTING = TIMESERIES pump_5



[DWF]
;;Node           Constituent      Baseline   Patterns  
;;-------------- ---------------- ---------- ----------
J1               FLOW             0.01269    "" "DWF"
CSO7             FLOW             0.00656    "" "DWF"
J5               FLOW             0.00288    "" "DWF"
CSO9             FLOW             0.00443    "" "DWF"
J8               FLOW             0.02126    "" "DWF"
CSO8             FLOW             0.00518    "DWFCommercial0"
J10              FLOW             0.00871    "" "DWF"
J13              FLOW             0.01056    "" "DWF"
J16              FLOW             0.01251    "" "DWF"
CSO10            FLOW             0.00314    "" "DWF"

[CURVES]
;;Name           Type       X-Value    Y-Value   
;;-------------- ---------- ---------- ----------
Tank1            Storage    0          140       
Tank1                       5          140       
;
Tank2            Storage    0          200       
Tank2                       5          200       
;
Tank3            Storage    0          520       
Tank3                       5          520       
;
Tank4            Storage    0          100       
Tank4                       5          100       
;
Tank5            Storage    0          100       
Tank5                       5          100       
;
Tank6            Storage    0          120       
Tank6                       5          120       

[TIMESERIES]
;;Name           Date       Time       Value     
;;-------------- ---------- ---------- ----------
pump_0           8/28/2015  08:10      1.7663577478910955
pump_0           8/28/2015  08:20      2.052647094964845
pump_0           8/28/2015  08:30      1.8557396505464792
pump_0           8/28/2015  08:40      1.808214572779467
pump_0           8/28/2015  08:50      1.91166761393395
pump_0           8/28/2015  09:00      1.904729881560134
pump_0           8/28/2015  09:10      1.9611067588535271
pump_0           8/28/2015  09:20      1.8610944475434312
pump_0           8/28/2015  09:30      1.956798020813813
pump_0           8/28/2015  09:40      1.8749583334626814
pump_0           8/28/2015  09:50      1.8213914474949242
pump_0           8/28/2015  10:00      2.098968656295949
pump_0           8/28/2015  10:10      1.76595284277676
pump_0           8/28/2015  10:20      1.8956591055205778
pump_0           8/28/2015  10:30      1.8600109663355175
pump_0           8/28/2015  10:40      1.9573888893199736
pump_0           8/28/2015  10:50      1.9068314189809874
pump_0           8/28/2015  11:00      1.85503165893796
pump_0           8/28/2015  11:10      1.8407463780228315
pump_0           8/28/2015  11:20      1.8935502382188871
pump_0           8/28/2015  11:30      1.8298800839786094
pump_0           8/28/2015  11:40      1.8235352946982268
pump_0           8/28/2015  11:50      1.8293904910046934
pump_0           8/28/2015  12:00      1.8811937297269967
pump_0           8/28/2015  12:10      1.9509667220811686
pump_0           8/28/2015  12:20      1.8485885753975178
pump_0           8/28/2015  12:30      1.8662683961243003
pump_0           8/28/2015  12:40      1.938234813687296
pump_0           8/28/2015  12:50      2.015669889863023
pump_0           8/28/2015  13:00      1.8962902135994053
pump_0           8/28/2015  13:10      1.9154912731734735
pump_0           8/28/2015  13:20      1.802267172362821
pump_0           8/28/2015  13:30      1.7463524197234528
pump_0           8/28/2015  13:40      2.1081696490040214
pump_0           8/28/2015  13:50      1.8937800009636812
pump_0           8/28/2015  14:00      2.058107956344646
pump_0           8/28/2015  14:10      1.883630703371849
pump_0           8/28/2015  14:20      1.8187336748784593
pump_0           8/28/2015  14:30      1.9978003383530825
pump_0           8/28/2015  14:40      1.8848890872104995
pump_0           8/28/2015  14:50      1.9091870443781516
pump_0           8/28/2015  15:00      1.9039246283382174
pump_0           8/28/2015  15:10      2.054275577137841
pump_0           8/28/2015  15:20      1.7891718685000662
pump_0           8/28/2015  15:30      1.8947307027921207
pump_0           8/28/2015  15:40      1.752327544434341
;
pump_1           8/28/2015  08:10      1.0029577478910954
pump_1           8/28/2015  08:20      1.2892470949648451
pump_1           8/28/2015  08:30      0.9632396505464793
pump_1           8/28/2015  08:40      0.915714572779467
pump_1           8/28/2015  08:50      1.01916761393395
pump_1           8/28/2015  09:00      1.0122298815601338
pump_1           8/28/2015  09:10      1.0686067588535273
pump_1           8/28/2015  09:20      0.9685944475434312
pump_1           8/28/2015  09:30      1.0642980208138129
pump_1           8/28/2015  09:40      0.9824583334626814
pump_1           8/28/2015  09:50      0.9288914474949242
pump_1           8/28/2015  10:00      1.2064686562959488
pump_1           8/28/2015  10:10      1.0025528427767598
pump_1           8/28/2015  10:20      1.132259105520578
pump_1           8/28/2015  10:30      1.0966109663355175
pump_1           8/28/2015  10:40      1.1939888893199737
pump_1           8/28/2015  10:50      1.1434314189809873
pump_1           8/28/2015  11:00      1.09163165893796
pump_1           8/28/2015  11:10      1.0773463780228316
pump_1           8/28/2015  11:20      1.1301502382188873
pump_1           8/28/2015  11:30      1.0664800839786093
pump_1           8/28/2015  11:40      1.060135294698227
pump_1           8/28/2015  11:50      1.0659904910046933
pump_1           8/28/2015  12:00      1.1177937297269966
pump_1           8/28/2015  12:10      1.1875667220811685
pump_1           8/28/2015  12:20      1.0851885753975177
pump_1           8/28/2015  12:30      1.1028683961243002
pump_1           8/28/2015  12:40      1.174834813687296
pump_1           8/28/2015  12:50      1.2522698898630233
pump_1           8/28/2015  13:00      1.1328902135994052
pump_1           8/28/2015  13:10      1.1520912731734734
pump_1           8/28/2015  13:20      1.038867172362821
pump_1           8/28/2015  13:30      0.9829524197234529
pump_1           8/28/2015  13:40      1.3447696490040215
pump_1           8/28/2015  13:50      1.130380000963681
pump_1           8/28/2015  14:00      1.2947079563446455
pump_1           8/28/2015  14:10      1.1202307033718488
pump_1           8/28/2015  14:20      1.0553336748784594
pump_1           8/28/2015  14:30      1.2344003383530824
pump_1           8/28/2015  14:40      1.1214890872104994
pump_1           8/28/2015  14:50      1.1457870443781517
pump_1           8/28/2015  15:00      1.1405246283382173
pump_1           8/28/2015  15:10      1.2908755771378408
pump_1           8/28/2015  15:20      1.025771868500066
pump_1           8/28/2015  15:30      1.1313307027921207
pump_1           8/28/2015  15:40      0.9889275444343409
;
pump_2           8/28/2015  08:10      1.4171577478910955
pump_2           8/28/2015  08:20      1.7034470949648453
pump_2           8/28/2015  08:30      1.5065396505464794
pump_2           8/28/2015  08:40      1.459014572779467
pump_2           8/28/2015  08:50      1.5624676139339502
pump_2           8/28/2015  09:00      1.5555298815601337
pump_2           8/28/2015  09:10      1.6119067588535274
pump_2           8/28/2015  09:20      1.511894447543431
pump_2           8/28/2015  09:30      1.6075980208138128
pump_2           8/28/2015  09:40      1.5257583334626814
pump_2           8/28/2015  09:50      1.4721914474949243
pump_2           8/28/2015  10:00      1.749768656295949
pump_2           8/28/2015  10:10      1.08185284277676
pump_2           8/28/2015  10:20      1.2115591055205779
pump_2           8/28/2015  10:30      1.5108109663355176
pump_2           8/28/2015  10:40      1.2732888893199736
pump_2           8/28/2015  10:50      1.2227314189809875
pump_2           8/28/2015  11:00      1.1709316589379601
pump_2           8/28/2015  11:10      1.1566463780228315
pump_2           8/28/2015  11:20      1.2094502382188872
pump_2           8/28/2015  11:30      1.1457800839786094
pump_2           8/28/2015  11:40      1.139435294698227
pump_2           8/28/2015  11:50      1.1452904910046935
pump_2           8/28/2015  12:00      1.1970937297269968
pump_2           8/28/2015  12:10      1.2668667220811687
pump_2           8/28/2015  12:20      1.1644885753975178
pump_2           8/28/2015  12:30      1.1821683961243004
pump_2           8/28/2015  12:40      1.254134813687296
pump_2           8/28/2015  12:50      1.3315698898630235
pump_2           8/28/2015  13:00      1.2121902135994054
pump_2           8/28/2015  13:10      1.2313912731734735
pump_2           8/28/2015  13:20      1.118167172362821
pump_2           8/28/2015  13:30      1.0622524197234529
pump_2           8/28/2015  13:40      1.4240696490040217
pump_2           8/28/2015  13:50      1.209680000963681
pump_2           8/28/2015  14:00      1.3740079563446457
pump_2           8/28/2015  14:10      1.1995307033718487
pump_2           8/28/2015  14:20      1.1346336748784593
pump_2           8/28/2015  14:30      1.3137003383530825
pump_2           8/28/2015  14:40      1.2007890872104996
pump_2           8/28/2015  14:50      1.2250870443781516
pump_2           8/28/2015  15:00      1.2198246283382175
pump_2           8/28/2015  15:10      1.370175577137841
pump_2           8/28/2015  15:20      1.1050718685000662
pump_2           8/28/2015  15:30      1.2106307027921208
pump_2           8/28/2015  15:40      1.068227544434341
;
pump_3           8/28/2015  08:10      0.9557577478910955
pump_3           8/28/2015  08:20      1.2420470949648452
pump_3           8/28/2015  08:30      1.0451396505464792
pump_3           8/28/2015  08:40      0.997614572779467
pump_3           8/28/2015  08:50      1.10106761393395
pump_3           8/28/2015  09:00      1.094129881560134
pump_3           8/28/2015  09:10      1.1505067588535272
pump_3           8/28/2015  09:20      1.0504944475434312
pump_3           8/28/2015  09:30      1.146198020813813
pump_3           8/28/2015  09:40      1.0643583334626814
pump_3           8/28/2015  09:50      1.0107914474949242
pump_3           8/28/2015  10:00      1.2883686562959489
pump_3           8/28/2015  10:10      0.9553528427767599
pump_3           8/28/2015  10:20      1.0850591055205778
pump_3           8/28/2015  10:30      1.0494109663355176
pump_3           8/28/2015  10:40      1.3096888893199736
pump_3           8/28/2015  10:50      1.2591314189809875
pump_3           8/28/2015  11:00      1.2073316589379601
pump_3           8/28/2015  11:10      1.1930463780228315
pump_3           8/28/2015  11:20      1.2458502382188872
pump_3           8/28/2015  11:30      1.1821800839786094
pump_3           8/28/2015  11:40      1.175835294698227
pump_3           8/28/2015  11:50      1.1816904910046935
pump_3           8/28/2015  12:00      1.2334937297269968
pump_3           8/28/2015  12:10      1.3032667220811687
pump_3           8/28/2015  12:20      1.2008885753975178
pump_3           8/28/2015  12:30      1.2185683961243003
pump_3           8/28/2015  12:40      1.290534813687296
pump_3           8/28/2015  12:50      1.3679698898630235
pump_3           8/28/2015  13:00      1.2485902135994054
pump_3           8/28/2015  13:10      1.2677912731734735
pump_3           8/28/2015  13:20      1.154567172362821
pump_3           8/28/2015  13:30      1.0986524197234528
pump_3           8/28/2015  13:40      1.4604696490040217
pump_3           8/28/2015  13:50      1.246080000963681
pump_3           8/28/2015  14:00      1.4104079563446457
pump_3           8/28/2015  14:10      1.2359307033718487
pump_3           8/28/2015  14:20      1.1710336748784593
pump_3           8/28/2015  14:30      1.3501003383530825
pump_3           8/28/2015  14:40      1.2371890872104996
pump_3           8/28/2015  14:50      1.2614870443781516
pump_3           8/28/2015  15:00      1.2562246283382175
pump_3           8/28/2015  15:10      1.406575577137841
pump_3           8/28/2015  15:20      1.1414718685000662
pump_3           8/28/2015  15:30      1.2470307027921208
pump_3           8/28/2015  15:40      1.104627544434341
;
pump_4           8/28/2015  08:10      1.7663577478910955
pump_4           8/28/2015  08:20      2.052647094964845
pump_4           8/28/2015  08:30      1.8557396505464792
pump_4           8/28/2015  08:40      1.808214572779467
pump_4           8/28/2015  08:50      1.91166761393395
pump_4           8/28/2015  09:00      1.904729881560134
pump_4           8/28/2015  09:10      1.9611067588535271
pump_4           8/28/2015  09:20      1.8610944475434312
pump_4           8/28/2015  09:30      1.956798020813813
pump_4           8/28/2015  09:40      1.8749583334626814
pump_4           8/28/2015  09:50      1.8213914474949242
pump_4           8/28/2015  10:00      2.098968656295949
pump_4           8/28/2015  10:10      1.76595284277676
pump_4           8/28/2015  10:20      1.8956591055205778
pump_4           8/28/2015  10:30      1.8600109663355175
pump_4           8/28/2015  10:40      1.9573888893199736
pump_4           8/28/2015  10:50      1.9068314189809874
pump_4           8/28/2015  11:00      1.85503165893796