[TITLE]
;;Project Title/Notes

[OPTIONS]
;;Option             Value
FLOW_UNITS           CMS
INFILTRATION         HORTON
FLOW_ROUTING         DYNWAVE
LINK_OFFSETS         DEPTH
MIN_SLOPE            0
ALLOW_PONDING        YES
SKIP_STEADY_STATE    NO

START_DATE           08/28/2015
START_TIME           08:00
REPORT_START_DATE    08/28/2015
REPORT_START_TIME    08:00
END_DATE             08/28/2015
END_TIME             15:50
SWEEP_START          01/01
SWEEP_END            12/31
DRY_DAYS             0
REPORT_STEP          00:01:00
WET_STEP             00:01:00
DRY_STEP             00:01:00
ROUTING_STEP         0:00:05 
RULE_STEP            00:00:00

INERTIAL_DAMPING     PARTIAL
NORMAL_FLOW_LIMITED  BOTH
FORCE_MAIN_EQUATION  H-W
VARIABLE_STEP        0.75
LENGTHENING_STEP     0
MIN_SURFAREA         1.167
MAX_TRIALS           8
HEAD_TOLERANCE       0.0015
SYS_FLOW_TOL         5
LAT_FLOW_TOL         5
MINIMUM_STEP         0.5
THREADS              1

[EVAPORATION]
;;Data Source    Parameters
;;-------------- ----------------
CONSTANT         0.0
DRY_ONLY         NO

[RAINGAGES]
;;Name           Format    Interval SCF      Source    
;;-------------- --------- ------ ------ ----------
RG1              INTENSITY 0:01     1.0      TIMESERIES Oneyear-2h      
RG2              INTENSITY 0:01     1.0      TIMESERIES Oneyear-2h      
RG3              INTENSITY 0:01     1.0      TIMESERIES Oneyear-2h      
RG4              INTENSITY 0:01     1.0      TIMESERIES Oneyear-2h      

[SUBCATCHMENTS]
;;Name           Rain Gage        Outlet           Area     %Imperv  Width    %Slope   CurbLen  SnowPack        
;;-------------- ---------------- ---------------- -------- -------- -------- -------- -------- ----------------
SC01             RG4              J16              33       100      2400     0.8      0.0                      
SC02             RG3              J13              22.75    100      1500     0.8      0                        
SC03             RG1              J10              18       100      2000     0.5      0                        
SC04             RG3              J5               6.9      100      200      0.7      0                        
SC05             RG4              J1               15.6     100      1000     0.5      0                        
SC06             RG2              J8               32.55    100      985      0.5      0                        
SC07             RG3              CSO7             4.75     100      360      0.51     0                        
SC08             RG1              CSO8             28       100      1950     0.45     0                        
SC09             RG2              CSO9             6.9      100      650      0.4      0                        
SC010            RG4              CSO10            11.75    100      650      0.5      0                        

[SUBAREAS]
;;Subcatchment   N-Imperv   N-Perv     S-Imperv   S-Perv     PctZero    RouteTo    PctRouted 
;;-------------- ---------- ---------- ---------- ---------- ---------- ---------- ----------
SC01             0.009      0.10       0.05       0.05       0.0        OUTLET    
SC02             0.009      0.1        0.05       0.05       0          OUTLET    
SC03             0.007      0.1        0.05       0.05       0          OUTLET    
SC04             0.009      0.1        0.05       0.05       0          OUTLET    
SC05             0.007      0.1        0.05       0.05       0          OUTLET    
SC06             0.01       0.1        0.05       0.05       0          OUTLET    
SC07             0.02       0.1        0.05       0.05       0          OUTLET    
SC08             0.01       0.1        0.05       0.05       0          OUTLET    
SC09             0.016      0.1        0.05       0.05       0          OUTLET    
SC010            0.008      0.1        0.05       0.05       0          OUTLET    

[INFILTRATION]
;;Subcatchment   MaxRate    MinRate    Decay      DryTime    MaxInfil  
;;-------------- ---------- ---------- ---------- ---------- ----------
SC01             3.0        0.5        4          7          0         
SC02             3.0        0.5        4          7          0         
SC03             3.0        0.5        4          7          0         
SC04             3.0        0.5        4          7          0         
SC05             3.0        0.5        4          7          0         
SC06             3.0        0.5        4          7          0         
SC07             3.0        0.5        4          7          0         
SC08             3.0        0.5        4          7          0         
SC09             3.0        0.5        4          7          0         
SC010            3.0        0.5        4          7          0         

[JUNCTIONS]
;;Name           Elevation  MaxDepth   InitDepth  SurDepth   Aponded   
;;-------------- ---------- ---------- ---------- ---------- ----------
J1               34.000000  2          0.000000   05.000000  0.000000  
J3               18.000000  2          0.000000   0.000000   0.000000  
CSO7             34.00000   1.2        0.000000   0.000000   0.000     
J5               32.00000   2.000000   0.000000   0.000000   0.000000  
CSO9             40.000000  2          0.000000   0.000000   0.000000  
J8               36.000000  3.000000   0.000000   0.000000   0.000000  
CSO8             32.000000  2          0.000000   0.00000    0.00000   
J10              29.000000  2.000000   0.000000   0.000000   0.000000  
J13              29.000000  2.000000   0.000000   0.000000   0.000000  
J15              15.000000  3.000000   0.000000   0.000000   0.000000  
J16              30.000000  2.000000   0.000000   0.000000   0.000000  
CSO10            30.000000  1.00000    0.000000   0.000000   0.000000  
J12              26.000000  2.000000   0.000000   0.000000   0.000000  
J4               33         2.0        0.00000    0.00000    0.00000   
J6               25         2          0.0000     0.0000     0.0000    
J2               25         2          0.00000    0.00000    0.00000   
J19              8          2          0.0000     0.0000     0.0000    
J9               29         2          0.0000     0.0000     0.0000    
J14              20         2          0.0000     0.0000     0.0000    
J17              20         2          0.0000     0.0000     0.0000    
J7               39         2          0.00000    0.00000    0.00000   
J11              31         2          0.0000     0.0000     0.0000    
J18              29         2          0.0000     0.0000     0.0000    

[OUTFALLS]
;;Name           Elevation  Type       Stage Data       Gated    Route To        
;;-------------- ---------- ---------- ---------------- -------- ----------------
Out_to_WWTP      6          FREE                        NO                       

[STORAGE]
;;Name           Elev.    MaxDepth   InitDepth  Shape      Curve Name/Params            N/A      Fevap    Psi      Ksat     IMD     
;;-------------- -------- ---------- ----------- ---------- ---------------------------- -------- --------          -------- --------
T5               27.000000 5.000000   0.000000   TABULAR    Tank5                        0.000000 0.000000
T4               27.000000 5.000000   0.000000   TABULAR    Tank4                        0.000000 0.000000
T6               31.000000 5.000000   0.000000   TABULAR    Tank6                        0        0       
T3               22.000000 5.000000   0.000000   TABULAR    Tank3                        0.000000 0.000000
T2               21.000000 5.000000   0.000000   TABULAR    Tank2                        0.000000 0.000000
T1               10.000000 5.000000   0.000000   TABULAR    Tank1                        0.000000 0.000000

[CONDUITS]
;;Name           From Node        To Node          Length     Roughness  InOffset   OutOffset  InitFlow   MaxFlow   
;;-------------- ---------------- ---------------- ---------- ---------- ---------- ---------- ---------- ----------
C1               J2               J3               400        0.013      0.00000    0.00000    0.00000    0         
C6               J4               J5               400        0.01       0.00000    0.00000    0.00000    0         
C2               J6               J3               400        0.012      0.00000    0.00000    0.00000    0         
C9               J7               J8               500        0.013      0.00000    0.00000    0.00000    0         
C16              J11              J10              500        0.012      0.0000     0.0000     0.00000    0         
C3               J14              J3               200        0.012      0.000      0.000      0.00000    0         
C19              J17              J15              400        0.012      0.00000    0.00000    0.00000    0         
C11              J3               J15              200        0.012      0.0000     0.0000     0.00000    0         
C20              J16              J15              400        0.012      0.0000     0.0000     0.00000    0         
C22              J18              J15              500        0.013      0.0000     0.0000     0.00000    0         
C12              J9               J12              500        0.012      0.00000    0.00000    0.00000    0         
C17              J10              J12              200        0.012      0.0000     0.0000     0.00000    0         
C10              J8               T6               310.5      0.012      0.00000    0.00000    0.00000    0         
C13              J12              T3               375        0.012      0          0          0.00000    0         
C18              J13              T2               257        0.013      0.0000     0.0000     0.00000    0         
C23              J15              T1               305        0.013      0.0000     0.0000     0.00000    0         
C4               J1               T5               278        0.012      0.0000     0.0000     0.00000    0         
C7               J5               T4               204        0.012      0.00000    0.00000    0.00000    0         
C14              J19              Out_to_WWTP      200        0.011      0.0000     0.0000     0.0000     0         
C5               CSO7             J4               100        0.014      0.0000     0.0000     0.0000     0         
C8               CSO9             J7               100        0.0185     0.0000     0.0000     0.00000    0         
C15              CSO8             J11              100        0.012      0.0000     0.0000     0.0000     0         
C21              CSO10            J18              100        0.02       0.00000    0.00000    0.00000    0         

[ORIFICES]
;;Name           From Node        To Node          Type         Offset     Qcoeff     Gated    CloseTime 
;;-------------- ---------------- ---------------- ------------ ---------- ---------- -------- ----------
V4               T4               J6               SIDE         0.00000    1          NO       0         
V5               T5               J2               SIDE         0.0000     1          NO       0         
V1               T1               J19              SIDE         0.00000    1          NO       0         
V6               T6               J9               SIDE         0.0000     1          NO       0         
V3               T3               J14              SIDE         0.0000     1          NO       0         
V2               T2               J17              SIDE         0.0000     1          NO       0         

[XSECTIONS]
;;Link           Shape        Geom1            Geom2      Geom3      Geom4      Barrels    Culvert   
;;-------------- ------------ ---------------- ---------- ---------- ---------- ---------- ----------
C1               CIRCULAR     1                0          0          0          1                    
C6               CIRCULAR     0.3              0          0          0          1                    
C2               CIRCULAR     0.6              0          0          0          1                    
C9               CIRCULAR     0.5              0          0          0          1                    
C16              CIRCULAR     2                0          0          0          1                    
C3               CIRCULAR     1                0          0          0          1                    
C19              CIRCULAR     1                0          0          0          1                    
C11              CIRCULAR     2                0          0          0          1                    
C20              CIRCULAR     2                0          0          0          1                    
C22              CIRCULAR     0.8              0          0          0          1                    
C12              CIRCULAR     2                0          0          0          1                    
C17              CIRCULAR     2                0          0          0          1                    
C10              CIRCULAR     1.5              0          0          0          1                    
C13              CIRCULAR     2                0          0          0          1                    
C18              CIRCULAR     2                0          0          0          1                    
C23              CIRCULAR     1.5              0          0          0          1                    
C4               CIRCULAR     1                0          0          0          1                    
C7               CIRCULAR     1                0          0          0          1                    
C14              CIRCULAR     2                0          0          0          1                    
C5               CIRCULAR     0.2555           0          0          0          1                    
C8               CIRCULAR     0.318            0          0          0          1                    
C15              CIRCULAR     0.453            0          0          0          1                    
C21              CIRCULAR     0.44             0          0          0          1                    
V4               RECT_CLOSED  0.0264           0.3048     0          0
V5               RECT_CLOSED  0.013            0.3048     0          0
V1               RECT_CLOSED  0.09             0.3048     0          0
V6               RECT_CLOSED  0.0581           0.3048     0          0
V3               RECT_CLOSED  0.063            0.3048     0          0
V2               RECT_CLOSED  0.0465           0.3048     0          0

[LOSSES]
;;Link           Kentry     Kexit      Kavg       Flap Gate  Seepage   
;;-------------- ---------- ---------- ---------- ---------- ----------
C1               0.00000    0.00000    0.00000    NO         0.00000   
C6               0.00000    0.00000    0.00000    NO         0.00000   
C2               0.00000    0.00000    0.00000    NO         0.00000   
C9               0.00000    0.00000    0.00000    NO         0.00000   
C16              0.00000    0.00000    0.00000    NO         0         
C3               0.00000    0.00000    0.00000    NO         0         
C19              0.00000    0.00000    0.00000    NO         0.00000   
C11              0.00000    0.00000    0.00000    NO         0.00000   
C20              0.00000    0.00000    0.00000    NO         0.0000    
C22              0.00000    0.00000    0.00000    NO         0.0000    
C12              0.00000    0.00000    0.00000    NO         0.00000   
C17              0.00000    0.00000    0.00000    NO         0.0000    
C10              0.00000    0.00000    0.00000    NO         0.00000   
C13              0.00000    0.00000    0.00000    NO         0         
C18              0.00000    0.00000    0.00000    NO         0.0000    
C23              0.00000    0.00000    0.00000    NO         0.0000    
C4               0.00000    0.00000    0.00000    NO         0.00000   
C7               0.00000    0.00000    0.00000    NO         0.00000   
C14              0.0000     0.0000     0.0000     NO         0.0000    
C5               0.00000    0.00000    0.00000    NO         0.00000   
C8               0.00000    0.00000    0.00000    NO         0.00000   
C15              0.0000     0.0000     0.0000     NO         0.0000    
C21              0.00000    0.00000    0.00000    NO         0.00000   

[CONTROLS]
RULE R0
IF SIMULATION TIME > 0
THEN ORIFICE V1 SETTING = TIMESERIES pump_0

RULE R1
IF SIMULATION TIME > 0
THEN ORIFICE V2 SETTING = TIMESERIES pump_1

RULE R2
IF SIMULATION TIME > 0
THEN ORIFICE V3 SETTING = TIMESERIES pump_2

RULE R3
IF SIMULATION TIME > 0
THEN ORIFICE V4 SETTING = TIMESERIES pump_3

RULE R4
IF SIMULATION TIME > 0
THEN ORIFICE V5 SETTING = TIMESERIES pump_4

RULE R5
IF SIMULATION TIME > 0
THEN ORIFICE V6 SETTING = TIMESERIES pump_5



[DWF]
;;Node           Constituent      Baseline   Patterns  
;;-------------- ---------------- ---------- ----------
J1               FLOW             0.01269    "" "DWF"
CSO7             FLOW             0.00656    "" "DWF"
J5               FLOW             0.00288    "" "DWF"
CSO9             FLOW             0.00443    "" "DWF"
J8               FLOW             0.02126    "" "DWF"
CSO8             FLOW             0.00518    "DWFCommercial0"
J10              FLOW             0.00871    "" "DWF"
J13              FLOW             0.01056    "" "DWF"
J16              FLOW             0.01251    "" "DWF"
CSO10            FLOW             0.00314    "" "DWF"

[CURVES]
;;Name           Type       X-Value    Y-Value   
;;-------------- ---------- ---------- ----------
Tank1            Storage    0          140       
Tank1                       5          140       
;
Tank2            Storage    0          200       
Tank2                       5          200       
;
Tank3            Storage    0          520       
Tank3                       5          520       
;
Tank4            Storage    0          100       
Tank4                       5          100       
;
Tank5            Storage    0          100       
Tank5                       5          100       
;
Tank6            Storage    0          120       
Tank6                       5          120       

[TIMESERIES]
;;Name           Date       Time       Value     
;;-------------- ---------- ---------- ----------
pump_0           8/28/2015  08:10      1.8718419096692485
pump_0           8/28/2015  08:20      1.7449624425004777
pump_0           8/28/2015  08:30      1.7884242819215603
pump_0           8/28/2015  08:40      1.8481504474353978
pump_0           8/28/2015  08:50      1.952910411907705
pump_0           8/28/2015  09:00      1.8454845580251056
pump_0           8/28/2015  09:10      1.9924076549053455
pump_0           8/28/2015  09:20      1.8690426706937864
pump_0           8/28/2015  09:30      2.019355627996549
pump_0           8/28/2015  09:40      1.8864621258789396
pump_0           8/28/2015  09:50      2.00248685686935
pump_0           8/28/2015  10:00      1.9190794748497764
pump_0           8/28/2015  10:10      1.7989025986741842
pump_0           8/28/2015  10:20      1.825084484973797
pump_0           8/28/2015  10:30      1.7377176714306743
pump_0           8/28/2015  10:40      1.777594620430896
pump_0           8/28/2015  10:50      1.8086364697630026
pump_0           8/28/2015  11:00      2.0415215776897218
pump_0           8/28/2015  11:10      1.8445384034832026
pump_0           8/28/2015  11:20      1.783461220710342
pump_0           8/28/2015  11:30      1.9481199033419005
pump_0           8/28/2015  11:40      1.880616072889429
pump_0           8/28/2015  11:50      1.8438159108456562
pump_0           8/28/2015  12:00      1.896605130109588
pump_0           8/28/2015  12:10      1.772931125231111
pump_0           8/28/2015  12:20      2.0465935364970766
pump_0           8/28/2015  12:30      1.8015984860400907
pump_0           8/28/2015  12:40      1.788676947526472
pump_0           8/28/2015  12:50      1.7807638006175535
pump_0           8/28/2015  13:00      1.819367348563691
pump_0           8/28/2015  13:10      1.8897208744985687
pump_0           8/28/2015  13:20      1.9085899485634237
pump_0           8/28/2015  13:30      1.8029816063749522
pump_0           8/28/2015  13:40      1.847706308187305
pump_0           8/28/2015  13:50      1.8770929257233173
pump_0           8/28/2015  14:00      1.7311427864904583
pump_0           8/28/2015  14:10      1.9627100856433333
pump_0           8/28/2015  14:20      1.824633860203475
pump_0           8/28/2015  14:30      1.9776292823787585
pump_0           8/28/2015  14:40      1.9858423037707027
pump_0           8/28/2015  14:50      1.9120589206671599
pump_0           8/28/2015  15:00      1.8741338081746521
pump_0           8/28/2015  15:10      1.7082969257958258
pump_0           8/28/2015  15:20      2.1247212660376666
pump_0           8/28/2015  15:30      1.8693699905682108
pump_0           8/28/2015  15:40      1.9561027035289584
;
pump_1           8/28/2015  08:10      1.1084419096692484
pump_1           8/28/2015  08:20      0.9815624425004777
pump_1           8/28/2015  08:30      1.0250242819215603
pump_1           8/28/2015  08:40      1.0847504474353977
pump_1           8/28/2015  08:50      1.189510411907705
pump_1           8/28/2015  09:00      1.0820845580251057
pump_1           8/28/2015  09:10      1.2290076549053457
pump_1           8/28/2015  09:20      1.1056426706937863
pump_1           8/28/2015  09:30      1.2559556279965491
pump_1           8/28/2015  09:40      1.1230621258789395
pump_1           8/28/2015  09:50      1.2390868568693496
pump_1           8/28/2015  10:00      1.1556794748497763
pump_1           8/28/2015  10:10      1.0355025986741841
pump_1           8/28/2015  10:20      1.0616844849737972
pump_1           8/28/2015  10:30      0.8452176714306744
pump_1           8/28/2015  10:40      0.8850946204308963
pump_1           8/28/2015  10:50      1.0452364697630026
pump_1           8/28/2015  11:00      1.2781215776897217
pump_1           8/28/2015  11:10      1.0811384034832026
pump_1           8/28/2015  11:20      1.0200612207103419
pump_1           8/28/2015  11:30      1.1847199033419005
pump_1           8/28/2015  11:40      1.117216072889429
pump_1           8/28/2015  11:50      1.0804159108456561
pump_1           8/28/2015  12:00      1.133205130109588
pump_1           8/28/2015  12:10      1.009531125231111
pump_1           8/28/2015  12:20      1.2831935364970768
pump_1           8/28/2015  12:30      1.0381984860400908
pump_1           8/28/2015  12:40      1.025276947526472
pump_1           8/28/2015  12:50      1.0173638006175534
pump_1           8/28/2015  13:00      1.055967348563691
pump_1           8/28/2015  13:10      1.1263208744985689
pump_1           8/28/2015  13:20      1.1451899485634236
pump_1           8/28/2015  13:30      1.0395816063749521
pump_1           8/28/2015  13:40      1.084306308187305
pump_1           8/28/2015  13:50      1.1136929257233172
pump_1           8/28/2015  14:00      0.9677427864904584
pump_1           8/28/2015  14:10      1.1993100856433334
pump_1           8/28/2015  14:20      1.061233860203475
pump_1           8/28/2015  14:30      1.2142292823787586
pump_1           8/28/2015  14:40      1.2224423037707026
pump_1           8/28/2015  14:50      1.1486589206671598
pump_1           8/28/2015  15:00      1.110733808174652
pump_1           8/28/2015  15:10      0.9448969257958258
pump_1           8/28/2015  15:20      1.3613212660376663
pump_1           8/28/2015  15:30      1.105969990568211
pump_1           8/28/2015  15:40      1.1927027035289584
;
pump_2           8/28/2015  08:10      1.5226419096692485
pump_2           8/28/2015  08:20      1.3957624425004778
pump_2           8/28/2015  08:30      1.4392242819215604
pump_2           8/28/2015  08:40      1.4989504474353978
pump_2           8/28/2015  08:50      1.603710411907705
pump_2           8/28/2015  09:00      1.1613845580251057
pump_2           8/28/2015  09:10      1.3083076549053456
pump_2           8/28/2015  09:20      1.1849426706937864
pump_2           8/28/2015  09:30      1.3352556279965493
pump_2           8/28/2015  09:40      1.2023621258789396
pump_2           8/28/2015  09:50      1.3183868568693498
pump_2           8/28/2015  10:00      1.2349794748497762
pump_2           8/28/2015  10:10      1.1148025986741843
pump_2           8/28/2015  10:20      1.1409844849737971
pump_2           8/28/2015  10:30      1.3885176714306744
pump_2           8/28/2015  10:40      1.4283946204308964
pump_2           8/28/2015  10:50      1.1245364697630027
pump_2           8/28/2015  11:00      1.3574215776897218
pump_2           8/28/2015  11:10      1.1604384034832027
pump_2           8/28/2015  11:20      1.0993612207103418
pump_2           8/28/2015  11:30      1.2640199033419006
pump_2           8/28/2015  11:40      1.196516072889429
pump_2           8/28/2015  11:50      1.1597159108456563
pump_2           8/28/2015  12:00      1.212505130109588
pump_2           8/28/2015  12:10      1.0888311252311111
pump_2           8/28/2015  12:20      1.362493536497077
pump_2           8/28/2015  12:30      1.1174984860400907
pump_2           8/28/2015  12:40      1.104576947526472
pump_2           8/28/2015  12:50      1.0966638006175535
pump_2           8/28/2015  13:00      1.135267348563691
pump_2           8/28/2015  13:10      1.2056208744985688
pump_2           8/28/2015  13:20      1.2244899485634237
pump_2           8/28/2015  13:30      1.1188816063749523
pump_2           8/28/2015  13:40      1.1636063081873051
pump_2           8/28/2015  13:50      1.1929929257233174
pump_2           8/28/2015  14:00      1.0470427864904583
pump_2           8/28/2015  14:10      1.2786100856433333
pump_2           8/28/2015  14:20      1.1405338602034751
pump_2           8/28/2015  14:30      1.2935292823787585
pump_2           8/28/2015  14:40      1.3017423037707025
pump_2           8/28/2015  14:50      1.22795892066716
pump_2           8/28/2015  15:00      1.1900338081746522
pump_2           8/28/2015  15:10      1.0241969257958259
pump_2           8/28/2015  15:20      1.4406212660376665
pump_2           8/28/2015  15:30      1.185269990568211
pump_2           8/28/2015  15:40      1.2720027035289585
;
pump_3           8/28/2015  08:10      1.0612419096692485
pump_3           8/28/2015  08:20      0.9343624425004777
pump_3           8/28/2015  08:30      0.9778242819215603
pump_3           8/28/2015  08:40      1.0375504474353978
pump_3           8/28/2015  08:50      1.142310411907705
pump_3           8/28/2015  09:00      1.0348845580251056
pump_3           8/28/2015  09:10      1.1818076549053456
pump_3           8/28/2015  09:20      1.0584426706937864
pump_3           8/28/2015  09:30      1.2087556279965492
pump_3           8/28/2015  09:40      1.0758621258789396
pump_3           8/28/2015  09:50      1.1918868568693497
pump_3           8/28/2015  10:00      1.1084794748497764
pump_3           8/28/2015  10:10      0.9883025986741842
pump_3           8/28/2015  10:20      1.014484484973797
pump_3           8/28/2015  10:30      0.9271176714306744
pump_3           8/28/2015  10:40      0.9669946204308962
pump_3           8/28/2015  10:50      1.1609364697630027
pump_3           8/28/2015  11:00      1.3938215776897218
pump_3           8/28/2015  11:10      1.1968384034832027
pump_3           8/28/2015  11:20      1.1357612207103418
pump_3           8/28/2015  11:30      1.3004199033419006
pump_3           8/28/2015  11:40      1.232916072889429
pump_3           8/28/2015  11:50      1.1961159108456563
pump_3           8/28/2015  12:00      1.248905130109588
pump_3           8/28/2015  12:10      1.1252311252311111
pump_3           8/28/2015  12:20      1.398893536497077
pump_3           8/28/2015  12:30      1.1538984860400907
pump_3           8/28/2015  12:40      1.140976947526472
pump_3           8/28/2015  12:50      1.1330638006175535
pump_3           8/28/2015  13:00      1.171667348563691
pump_3           8/28/2015  13:10      1.2420208744985688
pump_3           8/28/2015  13:20      1.2608899485634237
pump_3           8/28/2015  13:30      1.1552816063749523
pump_3           8/28/2015  13:40      1.2000063081873051
pump_3           8/28/2015  13:50      1.2293929257233174
pump_3           8/28/2015  14:00      1.0834427864904583
pump_3           8/28/2015  14:10      1.3150100856433333
pump_3           8/28/2015  14:20      1.1769338602034751
pump_3           8/28/2015  14:30      1.3299292823787585
pump_3           8/28/2015  14:40      1.3381423037707025
pump_3           8/28/2015  14:50      1.26435892066716
pump_3           8/28/2015  15:00      1.2264338081746522
pump_3           8/28/2015  15:10      1.0605969257958259
pump_3           8/28/2015  15:20      1.4770212660376665
pump_3           8/28/2015  15:30      1.221669990568211
pump_3           8/28/2015  15:40      1.3084027035289585
;
pump_4           8/28/2015  08:10      1.8718419096692485
pump_4           8/28/2015  08:20      1.7449624425004777
pump_4           8/28/2015  08:30      1.7884242819215603
pump_4           8/28/2015  08:40      1.8481504474353978
pump_4           8/28/2015  08:50      1.952910411907705
pump_4           8/28/2015  09:00      1.8454845580251056
pump_4           8/28/2015  09:10      1.9924076549053455
pump_4           8/28/2015  09:20      1.8690426706937864
pump_4           8/28/2015  09:30      2.019355627996549
pump_4           8/28/2015  09:40      1.8864621258789396
pump_4           8/28/2015  09:50      2.00248685686935
pump_4           8/28/2015  10:00      1.9190794748497764
pump_4           8/28/2015  10:10      1.7989025986741842
pump_4           8/28/2015  10:20      1.825084484973797
pump_4           8/28/2015  10:30      1.7377176714306743
pump_4           8/28/2015  10:40      1.777594620430896
pump_4           8/28/2015  10:50      1.8086364697630026