[TITLE]
;;Project Title/Notes

[OPTIONS]
;;Option             Value
FLOW_UNITS           CMS
INFILTRATION         HORTON
FLOW_ROUTING         DYNWAVE
LINK_OFFSETS         DEPTH
MIN_SLOPE            0
ALLOW_PONDING        YES
SKIP_STEADY_STATE    NO

START_DATE           08/28/2015
START_TIME           08:00
REPORT_START_DATE    08/28/2015
REPORT_START_TIME    08:00
END_DATE             08/28/2015
END_TIME             15:50
SWEEP_START          01/01
SWEEP_END            12/31
DRY_DAYS             0
REPORT_STEP          00:01:00
WET_STEP             00:01:00
DRY_STEP             00:01:00
ROUTING_STEP         0:00:05 
RULE_STEP            00:00:00

INERTIAL_DAMPING     PARTIAL
NORMAL_FLOW_LIMITED  BOTH
FORCE_MAIN_EQUATION  H-W
VARIABLE_STEP        0.75
LENGTHENING_STEP     0
MIN_SURFAREA         1.167
MAX_TRIALS           8
HEAD_TOLERANCE       0.0015
SYS_FLOW_TOL         5
LAT_FLOW_TOL         5
MINIMUM_STEP         0.5
THREADS              1

[EVAPORATION]
;;Data Source    Parameters
;;-------------- ----------------
CONSTANT         0.0
DRY_ONLY         NO

[RAINGAGES]
;;Name           Format    Interval SCF      Source    
;;-------------- --------- ------ ------ ----------
RG1              INTENSITY 0:01     1.0      TIMESERIES Oneyear-2h      
RG2              INTENSITY 0:01     1.0      TIMESERIES Oneyear-2h      
RG3              INTENSITY 0:01     1.0      TIMESERIES Oneyear-2h      
RG4              INTENSITY 0:01     1.0      TIMESERIES Oneyear-2h      

[SUBCATCHMENTS]
;;Name           Rain Gage        Outlet           Area     %Imperv  Width    %Slope   CurbLen  SnowPack        
;;-------------- ---------------- ---------------- -------- -------- -------- -------- -------- ----------------
SC01             RG4              J16              33       100      2400     0.8      0.0                      
SC02             RG3              J13              22.75    100      1500     0.8      0                        
SC03             RG1              J10              18       100      2000     0.5      0                        
SC04             RG3              J5               6.9      100      200      0.7      0                        
SC05             RG4              J1               15.6     100      1000     0.5      0                        
SC06             RG2              J8               32.55    100      985      0.5      0                        
SC07             RG3              CSO7             4.75     100      360      0.51     0                        
SC08             RG1              CSO8             28       100      1950     0.45     0                        
SC09             RG2              CSO9             6.9      100      650      0.4      0                        
SC010            RG4              CSO10            11.75    100      650      0.5      0                        

[SUBAREAS]
;;Subcatchment   N-Imperv   N-Perv     S-Imperv   S-Perv     PctZero    RouteTo    PctRouted 
;;-------------- ---------- ---------- ---------- ---------- ---------- ---------- ----------
SC01             0.009      0.10       0.05       0.05       0.0        OUTLET    
SC02             0.009      0.1        0.05       0.05       0          OUTLET    
SC03             0.007      0.1        0.05       0.05       0          OUTLET    
SC04             0.009      0.1        0.05       0.05       0          OUTLET    
SC05             0.007      0.1        0.05       0.05       0          OUTLET    
SC06             0.01       0.1        0.05       0.05       0          OUTLET    
SC07             0.02       0.1        0.05       0.05       0          OUTLET    
SC08             0.01       0.1        0.05       0.05       0          OUTLET    
SC09             0.016      0.1        0.05       0.05       0          OUTLET    
SC010            0.008      0.1        0.05       0.05       0          OUTLET    

[INFILTRATION]
;;Subcatchment   MaxRate    MinRate    Decay      DryTime    MaxInfil  
;;-------------- ---------- ---------- ---------- ---------- ----------
SC01             3.0        0.5        4          7          0         
SC02             3.0        0.5        4          7          0         
SC03             3.0        0.5        4          7          0         
SC04             3.0        0.5        4          7          0         
SC05             3.0        0.5        4          7          0         
SC06             3.0        0.5        4          7          0         
SC07             3.0        0.5        4          7          0         
SC08             3.0        0.5        4          7          0         
SC09             3.0        0.5        4          7          0         
SC010            3.0        0.5        4          7          0         

[JUNCTIONS]
;;Name           Elevation  MaxDepth   InitDepth  SurDepth   Aponded   
;;-------------- ---------- ---------- ---------- ---------- ----------
J1               34.000000  2          0.000000   05.000000  0.000000  
J3               18.000000  2          0.000000   0.000000   0.000000  
CSO7             34.00000   1.2        0.000000   0.000000   0.000     
J5               32.00000   2.000000   0.000000   0.000000   0.000000  
CSO9             40.000000  2          0.000000   0.000000   0.000000  
J8               36.000000  3.000000   0.000000   0.000000   0.000000  
CSO8             32.000000  2          0.000000   0.00000    0.00000   
J10              29.000000  2.000000   0.000000   0.000000   0.000000  
J13              29.000000  2.000000   0.000000   0.000000   0.000000  
J15              15.000000  3.000000   0.000000   0.000000   0.000000  
J16              30.000000  2.000000   0.000000   0.000000   0.000000  
CSO10            30.000000  1.00000    0.000000   0.000000   0.000000  
J12              26.000000  2.000000   0.000000   0.000000   0.000000  
J4               33         2.0        0.00000    0.00000    0.00000   
J6               25         2          0.0000     0.0000     0.0000    
J2               25         2          0.00000    0.00000    0.00000   
J19              8          2          0.0000     0.0000     0.0000    
J9               29         2          0.0000     0.0000     0.0000    
J14              20         2          0.0000     0.0000     0.0000    
J17              20         2          0.0000     0.0000     0.0000    
J7               39         2          0.00000    0.00000    0.00000   
J11              31         2          0.0000     0.0000     0.0000    
J18              29         2          0.0000     0.0000     0.0000    

[OUTFALLS]
;;Name           Elevation  Type       Stage Data       Gated    Route To        
;;-------------- ---------- ---------- ---------------- -------- ----------------
Out_to_WWTP      6          FREE                        NO                       

[STORAGE]
;;Name           Elev.    MaxDepth   InitDepth  Shape      Curve Name/Params            N/A      Fevap    Psi      Ksat     IMD     
;;-------------- -------- ---------- ----------- ---------- ---------------------------- -------- --------          -------- --------
T5               27.000000 5.000000   0.000000   TABULAR    Tank5                        0.000000 0.000000
T4               27.000000 5.000000   0.000000   TABULAR    Tank4                        0.000000 0.000000
T6               31.000000 5.000000   0.000000   TABULAR    Tank6                        0        0       
T3               22.000000 5.000000   0.000000   TABULAR    Tank3                        0.000000 0.000000
T2               21.000000 5.000000   0.000000   TABULAR    Tank2                        0.000000 0.000000
T1               10.000000 5.000000   0.000000   TABULAR    Tank1                        0.000000 0.000000

[CONDUITS]
;;Name           From Node        To Node          Length     Roughness  InOffset   OutOffset  InitFlow   MaxFlow   
;;-------------- ---------------- ---------------- ---------- ---------- ---------- ---------- ---------- ----------
C1               J2               J3               400        0.013      0.00000    0.00000    0.00000    0         
C6               J4               J5               400        0.01       0.00000    0.00000    0.00000    0         
C2               J6               J3               400        0.012      0.00000    0.00000    0.00000    0         
C9               J7               J8               500        0.013      0.00000    0.00000    0.00000    0         
C16              J11              J10              500        0.012      0.0000     0.0000     0.00000    0         
C3               J14              J3               200        0.012      0.000      0.000      0.00000    0         
C19              J17              J15              400        0.012      0.00000    0.00000    0.00000    0         
C11              J3               J15              200        0.012      0.0000     0.0000     0.00000    0         
C20              J16              J15              400        0.012      0.0000     0.0000     0.00000    0         
C22              J18              J15              500        0.013      0.0000     0.0000     0.00000    0         
C12              J9               J12              500        0.012      0.00000    0.00000    0.00000    0         
C17              J10              J12              200        0.012      0.0000     0.0000     0.00000    0         
C10              J8               T6               310.5      0.012      0.00000    0.00000    0.00000    0         
C13              J12              T3               375        0.012      0          0          0.00000    0         
C18              J13              T2               257        0.013      0.0000     0.0000     0.00000    0         
C23              J15              T1               305        0.013      0.0000     0.0000     0.00000    0         
C4               J1               T5               278        0.012      0.0000     0.0000     0.00000    0         
C7               J5               T4               204        0.012      0.00000    0.00000    0.00000    0         
C14              J19              Out_to_WWTP      200        0.011      0.0000     0.0000     0.0000     0         
C5               CSO7             J4               100        0.014      0.0000     0.0000     0.0000     0         
C8               CSO9             J7               100        0.0185     0.0000     0.0000     0.00000    0         
C15              CSO8             J11              100        0.012      0.0000     0.0000     0.0000     0         
C21              CSO10            J18              100        0.02       0.00000    0.00000    0.00000    0         

[ORIFICES]
;;Name           From Node        To Node          Type         Offset     Qcoeff     Gated    CloseTime 
;;-------------- ---------------- ---------------- ------------ ---------- ---------- -------- ----------
V4               T4               J6               SIDE         0.00000    1          NO       0         
V5               T5               J2               SIDE         0.0000     1          NO       0         
V1               T1               J19              SIDE         0.00000    1          NO       0         
V6               T6               J9               SIDE         0.0000     1          NO       0         
V3               T3               J14              SIDE         0.0000     1          NO       0         
V2               T2               J17              SIDE         0.0000     1          NO       0         

[XSECTIONS]
;;Link           Shape        Geom1            Geom2      Geom3      Geom4      Barrels    Culvert   
;;-------------- ------------ ---------------- ---------- ---------- ---------- ---------- ----------
C1               CIRCULAR     1                0          0          0          1                    
C6               CIRCULAR     0.3              0          0          0          1                    
C2               CIRCULAR     0.6              0          0          0          1                    
C9               CIRCULAR     0.5              0          0          0          1                    
C16              CIRCULAR     2                0          0          0          1                    
C3               CIRCULAR     1                0          0          0          1                    
C19              CIRCULAR     1                0          0          0          1                    
C11              CIRCULAR     2                0          0          0          1                    
C20              CIRCULAR     2                0          0          0          1                    
C22              CIRCULAR     0.8              0          0          0          1                    
C12              CIRCULAR     2                0          0          0          1                    
C17              CIRCULAR     2                0          0          0          1                    
C10              CIRCULAR     1.5              0          0          0          1                    
C13              CIRCULAR     2                0          0          0          1                    
C18              CIRCULAR     2                0          0          0          1                    
C23              CIRCULAR     1.5              0          0          0          1                    
C4               CIRCULAR     1                0          0          0          1                    
C7               CIRCULAR     1                0          0          0          1                    
C14              CIRCULAR     2                0          0          0          1                    
C5               CIRCULAR     0.2555           0          0          0          1                    
C8               CIRCULAR     0.318            0          0          0          1                    
C15              CIRCULAR     0.453            0          0          0          1                    
C21              CIRCULAR     0.44             0          0          0          1                    
V4               RECT_CLOSED  0.0264           0.3048     0          0
V5               RECT_CLOSED  0.013            0.3048     0          0
V1               RECT_CLOSED  0.09             0.3048     0          0
V6               RECT_CLOSED  0.0581           0.3048     0          0
V3               RECT_CLOSED  0.063            0.3048     0          0
V2               RECT_CLOSED  0.0465           0.3048     0          0

[LOSSES]
;;Link           Kentry     Kexit      Kavg       Flap Gate  Seepage   
;;-------------- ---------- ---------- ---------- ---------- ----------
C1               0.00000    0.00000    0.00000    NO         0.00000   
C6               0.00000    0.00000    0.00000    NO         0.00000   
C2               0.00000    0.00000    0.00000    NO         0.00000   
C9               0.00000    0.00000    0.00000    NO         0.00000   
C16              0.00000    0.00000    0.00000    NO         0         
C3               0.00000    0.00000    0.00000    NO         0         
C19              0.00000    0.00000    0.00000    NO         0.00000   
C11              0.00000    0.00000    0.00000    NO         0.00000   
C20              0.00000    0.00000    0.00000    NO         0.0000    
C22              0.00000    0.00000    0.00000    NO         0.0000    
C12              0.00000    0.00000    0.00000    NO         0.00000   
C17              0.00000    0.00000    0.00000    NO         0.0000    
C10              0.00000    0.00000    0.00000    NO         0.00000   
C13              0.00000    0.00000    0.00000    NO         0         
C18              0.00000    0.00000    0.00000    NO         0.0000    
C23              0.00000    0.00000    0.00000    NO         0.0000    
C4               0.00000    0.00000    0.00000    NO         0.00000   
C7               0.00000    0.00000    0.00000    NO         0.00000   
C14              0.0000     0.0000     0.0000     NO         0.0000    
C5               0.00000    0.00000    0.00000    NO         0.00000   
C8               0.00000    0.00000    0.00000    NO         0.00000   
C15              0.0000     0.0000     0.0000     NO         0.0000    
C21              0.00000    0.00000    0.00000    NO         0.00000   

[CONTROLS]
RULE R0
IF SIMULATION TIME > 0
THEN ORIFICE V1 SETTING = TIMESERIES pump_0

RULE R1
IF SIMULATION TIME > 0
THEN ORIFICE V2 SETTING = TIMESERIES pump_1

RULE R2
IF SIMULATION TIME > 0
THEN ORIFICE V3 SETTING = TIMESERIES pump_2

RULE R3
IF SIMULATION TIME > 0
THEN ORIFICE V4 SETTING = TIMESERIES pump_3

RULE R4
IF SIMULATION TIME > 0
THEN ORIFICE V5 SETTING = TIMESERIES pump_4

RULE R5
IF SIMULATION TIME > 0
THEN ORIFICE V6 SETTING = TIMESERIES pump_5



[DWF]
;;Node           Constituent      Baseline   Patterns  
;;-------------- ---------------- ---------- ----------
J1               FLOW             0.01269    "" "DWF"
CSO7             FLOW             0.00656    "" "DWF"
J5               FLOW             0.00288    "" "DWF"
CSO9             FLOW             0.00443    "" "DWF"
J8               FLOW             0.02126    "" "DWF"
CSO8             FLOW             0.00518    "DWFCommercial0"
J10              FLOW             0.00871    "" "DWF"
J13              FLOW             0.01056    "" "DWF"
J16              FLOW             0.01251    "" "DWF"
CSO10            FLOW             0.00314    "" "DWF"

[CURVES]
;;Name           Type       X-Value    Y-Value   
;;-------------- ---------- ---------- ----------
Tank1            Storage    0          140       
Tank1                       5          140       
;
Tank2            Storage    0          200       
Tank2                       5          200       
;
Tank3            Storage    0          520       
Tank3                       5          520       
;
Tank4            Storage    0          100       
Tank4                       5          100       
;
Tank5            Storage    0          100       
Tank5                       5          100       
;
Tank6            Storage    0          120       
Tank6                       5          120       

[TIMESERIES]
;;Name           Date       Time       Value     
;;-------------- ---------- ---------- ----------
pump_0           8/28/2015  08:10      1.9857334594905152
pump_0           8/28/2015  08:20      1.9487457259796588
pump_0           8/28/2015  08:30      1.932400022789289
pump_0           8/28/2015  08:40      1.943651505733323
pump_0           8/28/2015  08:50      1.9830049343962424
pump_0           8/28/2015  09:00      2.0115962113338837
pump_0           8/28/2015  09:10      1.790320046529648
pump_0           8/28/2015  09:20      1.8887101017579706
pump_0           8/28/2015  09:30      1.979471134947861
pump_0           8/28/2015  09:40      1.8846629540762927
pump_0           8/28/2015  09:50      1.9245530560623587
pump_0           8/28/2015  10:00      1.922512547571129
pump_0           8/28/2015  10:10      1.9353428120764407
pump_0           8/28/2015  10:20      2.022647557430564
pump_0           8/28/2015  10:30      1.9775046393579578
pump_0           8/28/2015  10:40      1.8394992358831375
pump_0           8/28/2015  10:50      2.0405486725922395
pump_0           8/28/2015  11:00      1.9064331211239707
pump_0           8/28/2015  11:10      1.8261958308060113
pump_0           8/28/2015  11:20      2.123909028482802
pump_0           8/28/2015  11:30      1.7953393037743393
pump_0           8/28/2015  11:40      1.8886051488189621
pump_0           8/28/2015  11:50      2.032703638464243
pump_0           8/28/2015  12:00      1.9791382480505613
pump_0           8/28/2015  12:10      2.1059626366062663
pump_0           8/28/2015  12:20      2.0734744609238698
pump_0           8/28/2015  12:30      1.9355314969221935
pump_0           8/28/2015  12:40      1.876370740993563
pump_0           8/28/2015  12:50      1.8974076191017863
pump_0           8/28/2015  13:00      1.9258715725721252
pump_0           8/28/2015  13:10      1.8060099190796919
pump_0           8/28/2015  13:20      1.935133573717294
pump_0           8/28/2015  13:30      1.9284855681383317
pump_0           8/28/2015  13:40      2.122681013431993
pump_0           8/28/2015  13:50      1.7994324934936372
pump_0           8/28/2015  14:00      1.922132898082356
pump_0           8/28/2015  14:10      1.791726375515918
pump_0           8/28/2015  14:20      1.8779404869489302
pump_0           8/28/2015  14:30      1.845825445840183
pump_0           8/28/2015  14:40      1.8165467814947798
pump_0           8/28/2015  14:50      1.8200309184774641
pump_0           8/28/2015  15:00      2.0121812365685665
pump_0           8/28/2015  15:10      1.9022499915970337
pump_0           8/28/2015  15:20      1.817711744466239
pump_0           8/28/2015  15:30      1.8865696315886917
pump_0           8/28/2015  15:40      1.9000053008243154
;
pump_1           8/28/2015  08:10      1.222333459490515
pump_1           8/28/2015  08:20      1.185345725979659
pump_1           8/28/2015  08:30      1.039900022789289
pump_1           8/28/2015  08:40      1.051151505733323
pump_1           8/28/2015  08:50      1.0905049343962423
pump_1           8/28/2015  09:00      1.1190962113338834
pump_1           8/28/2015  09:10      0.897820046529648
pump_1           8/28/2015  09:20      0.9962101017579705
pump_1           8/28/2015  09:30      1.086971134947861
pump_1           8/28/2015  09:40      0.9921629540762927
pump_1           8/28/2015  09:50      1.0320530560623586
pump_1           8/28/2015  10:00      1.030012547571129
pump_1           8/28/2015  10:10      1.1719428120764406
pump_1           8/28/2015  10:20      1.2592475574305637
pump_1           8/28/2015  10:30      1.214104639357958
pump_1           8/28/2015  10:40      1.0760992358831374
pump_1           8/28/2015  10:50      1.2771486725922394
pump_1           8/28/2015  11:00      1.1430331211239706
pump_1           8/28/2015  11:10      1.0627958308060113
pump_1           8/28/2015  11:20      1.360509028482802
pump_1           8/28/2015  11:30      1.0319393037743392
pump_1           8/28/2015  11:40      1.1252051488189623
pump_1           8/28/2015  11:50      1.2693036384642427
pump_1           8/28/2015  12:00      1.2157382480505612
pump_1           8/28/2015  12:10      1.342562636606266
pump_1           8/28/2015  12:20      1.3100744609238697
pump_1           8/28/2015  12:30      1.1721314969221934
pump_1           8/28/2015  12:40      1.112970740993563
pump_1           8/28/2015  12:50      1.1340076191017863
pump_1           8/28/2015  13:00      1.1624715725721253
pump_1           8/28/2015  13:10      1.0426099190796918
pump_1           8/28/2015  13:20      1.171733573717294
pump_1           8/28/2015  13:30      1.1650855681383316
pump_1           8/28/2015  13:40      1.3592810134319928
pump_1           8/28/2015  13:50      1.0360324934936371
pump_1           8/28/2015  14:00      1.158732898082356
pump_1           8/28/2015  14:10      1.028326375515918
pump_1           8/28/2015  14:20      1.1145404869489302
pump_1           8/28/2015  14:30      1.082425445840183
pump_1           8/28/2015  14:40      1.0531467814947797
pump_1           8/28/2015  14:50      1.056630918477464
pump_1           8/28/2015  15:00      1.2487812365685667
pump_1           8/28/2015  15:10      1.1388499915970338
pump_1           8/28/2015  15:20      1.0543117444662389
pump_1           8/28/2015  15:30      1.1231696315886919
pump_1           8/28/2015  15:40      1.1366053008243155
;
pump_2           8/28/2015  08:10      1.6365334594905152
pump_2           8/28/2015  08:20      1.599545725979659
pump_2           8/28/2015  08:30      1.5832000227892888
pump_2           8/28/2015  08:40      1.594451505733323
pump_2           8/28/2015  08:50      1.6338049343962422
pump_2           8/28/2015  09:00      1.6623962113338835
pump_2           8/28/2015  09:10      1.4411200465296479
pump_2           8/28/2015  09:20      1.5395101017579704
pump_2           8/28/2015  09:30      1.630271134947861
pump_2           8/28/2015  09:40      1.5354629540762927
pump_2           8/28/2015  09:50      1.5753530560623585
pump_2           8/28/2015  10:00      1.5733125475711291
pump_2           8/28/2015  10:10      1.2512428120764407
pump_2           8/28/2015  10:20      1.3385475574305639
pump_2           8/28/2015  10:30      1.293404639357958
pump_2           8/28/2015  10:40      1.1553992358831375
pump_2           8/28/2015  10:50      1.3564486725922396
pump_2           8/28/2015  11:00      1.2223331211239707
pump_2           8/28/2015  11:10      1.1420958308060114
pump_2           8/28/2015  11:20      1.4398090284828022
pump_2           8/28/2015  11:30      1.1112393037743393
pump_2           8/28/2015  11:40      1.2045051488189622
pump_2           8/28/2015  11:50      1.3486036384642428
pump_2           8/28/2015  12:00      1.2950382480505613
pump_2           8/28/2015  12:10      1.421862636606266
pump_2           8/28/2015  12:20      1.3893744609238698
pump_2           8/28/2015  12:30      1.2514314969221936
pump_2           8/28/2015  12:40      1.192270740993563
pump_2           8/28/2015  12:50      1.2133076191017864
pump_2           8/28/2015  13:00      1.2417715725721252
pump_2           8/28/2015  13:10      1.121909919079692
pump_2           8/28/2015  13:20      1.2510335737172942
pump_2           8/28/2015  13:30      1.2443855681383318
pump_2           8/28/2015  13:40      1.438581013431993
pump_2           8/28/2015  13:50      1.1153324934936373
pump_2           8/28/2015  14:00      1.238032898082356
pump_2           8/28/2015  14:10      1.107626375515918
pump_2           8/28/2015  14:20      1.1938404869489303
pump_2           8/28/2015  14:30      1.161725445840183
pump_2           8/28/2015  14:40      1.1324467814947798
pump_2           8/28/2015  14:50      1.1359309184774642
pump_2           8/28/2015  15:00      1.3280812365685668
pump_2           8/28/2015  15:10      1.2181499915970337
pump_2           8/28/2015  15:20      1.1336117444662388
pump_2           8/28/2015  15:30      1.2024696315886918
pump_2           8/28/2015  15:40      1.2159053008243155
;
pump_3           8/28/2015  08:10      1.1751334594905152
pump_3           8/28/2015  08:20      1.1381457259796588
pump_3           8/28/2015  08:30      1.121800022789289
pump_3           8/28/2015  08:40      1.133051505733323
pump_3           8/28/2015  08:50      1.1724049343962424
pump_3           8/28/2015  09:00      1.2009962113338835
pump_3           8/28/2015  09:10      0.979720046529648
pump_3           8/28/2015  09:20      1.0781101017579706
pump_3           8/28/2015  09:30      1.168871134947861
pump_3           8/28/2015  09:40      1.0740629540762927
pump_3           8/28/2015  09:50      1.1139530560623587
pump_3           8/28/2015  10:00      1.1119125475711291
pump_3           8/28/2015  10:10      1.1247428120764407
pump_3           8/28/2015  10:20      1.2120475574305638
pump_3           8/28/2015  10:30      1.1669046393579579
pump_3           8/28/2015  10:40      1.1917992358831375
pump_3           8/28/2015  10:50      1.3928486725922395
pump_3           8/28/2015  11:00      1.2587331211239707
pump_3           8/28/2015  11:10      1.1784958308060114
pump_3           8/28/2015  11:20      1.4762090284828022
pump_3           8/28/2015  11:30      1.1476393037743393
pump_3           8/28/2015  11:40      1.2409051488189622
pump_3           8/28/2015  11:50      1.3850036384642428
pump_3           8/28/2015  12:00      1.3314382480505613
pump_3           8/28/2015  12:10      1.458262636606266
pump_3           8/28/2015  12:20      1.4257744609238698
pump_3           8/28/2015  12:30      1.2878314969221936
pump_3           8/28/2015  12:40      1.2286707409935629
pump_3           8/28/2015  12:50      1.2497076191017864
pump_3           8/28/2015  13:00      1.2781715725721252
pump_3           8/28/2015  13:10      1.158309919079692
pump_3           8/28/2015  13:20      1.2874335737172942
pump_3           8/28/2015  13:30      1.2807855681383318
pump_3           8/28/2015  13:40      1.474981013431993
pump_3           8/28/2015  13:50      1.1517324934936373
pump_3           8/28/2015  14:00      1.274432898082356
pump_3           8/28/2015  14:10      1.144026375515918
pump_3           8/28/2015  14:20      1.2302404869489303
pump_3           8/28/2015  14:30      1.1981254458401829
pump_3           8/28/2015  14:40      1.1688467814947798
pump_3           8/28/2015  14:50      1.1723309184774642
pump_3           8/28/2015  15:00      1.3644812365685668
pump_3           8/28/2015  15:10      1.2545499915970337
pump_3           8/28/2015  15:20      1.1700117444662388
pump_3           8/28/2015  15:30      1.2388696315886918
pump_3           8/28/2015  15:40      1.2523053008243155
;
pump_4           8/28/2015  08:10      1.9857334594905152
pump_4           8/28/2015  08:20      1.9487457259796588
pump_4           8/28/2015  08:30      1.932400022789289
pump_4           8/28/2015  08:40      1.943651505733323
pump_4           8/28/2015  08:50      1.9830049343962424
pump_4           8/28/2015  09:00      2.0115962113338837
pump_4           8/28/2015  09:10      1.790320046529648
pump_4           8/28/2015  09:20      1.8887101017579706
pump_4           8/28/2015  09:30      1.979471134947861
pump_4           8/28/2015  09:40      1.8846629540762927
pump_4           8/28/2015  09:50      1.9245530560623587
pump_4           8/28/2015  10:00      1.922512547571129
pump_4           8/28/2015  10:10      1.9353428120764407
pump_4           8/28/2015  10:20      2.022647557430564
pump_4           8/28/2015  10:30      1.9775046393579578
pump_4           8/28/2015  10:40      1.8394992358831375
pump_4           8/28/2015  10:50      2.0405486725922395
pump_4           8/28/2015  11:00      1.9064331211239707