[TITLE]
;;Project Title/Notes

[OPTIONS]
;;Option             Value
FLOW_UNITS           CMS
INFILTRATION         HORTON
FLOW_ROUTING         DYNWAVE
LINK_OFFSETS         DEPTH
MIN_SLOPE            0
ALLOW_PONDING        YES
SKIP_STEADY_STATE    NO

START_DATE           08/28/2015
START_TIME           08:00
REPORT_START_DATE    08/28/2015
REPORT_START_TIME    08:00
END_DATE             08/28/2015
END_TIME             15:50
SWEEP_START          01/01
SWEEP_END            12/31
DRY_DAYS             0
REPORT_STEP          00:01:00
WET_STEP             00:01:00
DRY_STEP             00:01:00
ROUTING_STEP         0:00:05 
RULE_STEP            00:00:00

INERTIAL_DAMPING     PARTIAL
NORMAL_FLOW_LIMITED  BOTH
FORCE_MAIN_EQUATION  H-W
VARIABLE_STEP        0.75
LENGTHENING_STEP     0
MIN_SURFAREA         1.167
MAX_TRIALS           8
HEAD_TOLERANCE       0.0015
SYS_FLOW_TOL         5
LAT_FLOW_TOL         5
MINIMUM_STEP         0.5
THREADS              1

[EVAPORATION]
;;Data Source    Parameters
;;-------------- ----------------
CONSTANT         0.0
DRY_ONLY         NO

[RAINGAGES]
;;Name           Format    Interval SCF      Source    
;;-------------- --------- ------ ------ ----------
RG1              INTENSITY 0:01     1.0      TIMESERIES Oneyear-2h      
RG2              INTENSITY 0:01     1.0      TIMESERIES Oneyear-2h      
RG3              INTENSITY 0:01     1.0      TIMESERIES Oneyear-2h      
RG4              INTENSITY 0:01     1.0      TIMESERIES Oneyear-2h      

[SUBCATCHMENTS]
;;Name           Rain Gage        Outlet           Area     %Imperv  Width    %Slope   CurbLen  SnowPack        
;;-------------- ---------------- ---------------- -------- -------- -------- -------- -------- ----------------
SC01             RG4              J16              33       100      2400     0.8      0.0                      
SC02             RG3              J13              22.75    100      1500     0.8      0                        
SC03             RG1              J10              18       100      2000     0.5      0                        
SC04             RG3              J5               6.9      100      200      0.7      0                        
SC05             RG4              J1               15.6     100      1000     0.5      0                        
SC06             RG2              J8               32.55    100      985      0.5      0                        
SC07             RG3              CSO7             4.75     100      360      0.51     0                        
SC08             RG1              CSO8             28       100      1950     0.45     0                        
SC09             RG2              CSO9             6.9      100      650      0.4      0                        
SC010            RG4              CSO10            11.75    100      650      0.5      0                        

[SUBAREAS]
;;Subcatchment   N-Imperv   N-Perv     S-Imperv   S-Perv     PctZero    RouteTo    PctRouted 
;;-------------- ---------- ---------- ---------- ---------- ---------- ---------- ----------
SC01             0.009      0.10       0.05       0.05       0.0        OUTLET    
SC02             0.009      0.1        0.05       0.05       0          OUTLET    
SC03             0.007      0.1        0.05       0.05       0          OUTLET    
SC04             0.009      0.1        0.05       0.05       0          OUTLET    
SC05             0.007      0.1        0.05       0.05       0          OUTLET    
SC06             0.01       0.1        0.05       0.05       0          OUTLET    
SC07             0.02       0.1        0.05       0.05       0          OUTLET    
SC08             0.01       0.1        0.05       0.05       0          OUTLET    
SC09             0.016      0.1        0.05       0.05       0          OUTLET    
SC010            0.008      0.1        0.05       0.05       0          OUTLET    

[INFILTRATION]
;;Subcatchment   MaxRate    MinRate    Decay      DryTime    MaxInfil  
;;-------------- ---------- ---------- ---------- ---------- ----------
SC01             3.0        0.5        4          7          0         
SC02             3.0        0.5        4          7          0         
SC03             3.0        0.5        4          7          0         
SC04             3.0        0.5        4          7          0         
SC05             3.0        0.5        4          7          0         
SC06             3.0        0.5        4          7          0         
SC07             3.0        0.5        4          7          0         
SC08             3.0        0.5        4          7          0         
SC09             3.0        0.5        4          7          0         
SC010            3.0        0.5        4          7          0         

[JUNCTIONS]
;;Name           Elevation  MaxDepth   InitDepth  SurDepth   Aponded   
;;-------------- ---------- ---------- ---------- ---------- ----------
J1               34.000000  2          0.000000   05.000000  0.000000  
J3               18.000000  2          0.000000   0.000000   0.000000  
CSO7             34.00000   1.2        0.000000   0.000000   0.000     
J5               32.00000   2.000000   0.000000   0.000000   0.000000  
CSO9             40.000000  2          0.000000   0.000000   0.000000  
J8               36.000000  3.000000   0.000000   0.000000   0.000000  
CSO8             32.000000  2          0.000000   0.00000    0.00000   
J10              29.000000  2.000000   0.000000   0.000000   0.000000  
J13              29.000000  2.000000   0.000000   0.000000   0.000000  
J15              15.000000  3.000000   0.000000   0.000000   0.000000  
J16              30.000000  2.000000   0.000000   0.000000   0.000000  
CSO10            30.000000  1.00000    0.000000   0.000000   0.000000  
J12              26.000000  2.000000   0.000000   0.000000   0.000000  
J4               33         2.0        0.00000    0.00000    0.00000   
J6               25         2          0.0000     0.0000     0.0000    
J2               25         2          0.00000    0.00000    0.00000   
J19              8          2          0.0000     0.0000     0.0000    
J9               29         2          0.0000     0.0000     0.0000    
J14              20         2          0.0000     0.0000     0.0000    
J17              20         2          0.0000     0.0000     0.0000    
J7               39         2          0.00000    0.00000    0.00000   
J11              31         2          0.0000     0.0000     0.0000    
J18              29         2          0.0000     0.0000     0.0000    

[OUTFALLS]
;;Name           Elevation  Type       Stage Data       Gated    Route To        
;;-------------- ---------- ---------- ---------------- -------- ----------------
Out_to_WWTP      6          FREE                        NO                       

[STORAGE]
;;Name           Elev.    MaxDepth   InitDepth  Shape      Curve Name/Params            N/A      Fevap    Psi      Ksat     IMD     
;;-------------- -------- ---------- ----------- ---------- ---------------------------- -------- --------          -------- --------
T5               27.000000 5.000000   0.000000   TABULAR    Tank5                        0.000000 0.000000
T4               27.000000 5.000000   0.000000   TABULAR    Tank4                        0.000000 0.000000
T6               31.000000 5.000000   0.000000   TABULAR    Tank6                        0        0       
T3               22.000000 5.000000   0.000000   TABULAR    Tank3                        0.000000 0.000000
T2               21.000000 5.000000   0.000000   TABULAR    Tank2                        0.000000 0.000000
T1               10.000000 5.000000   0.000000   TABULAR    Tank1                        0.000000 0.000000

[CONDUITS]
;;Name           From Node        To Node          Length     Roughness  InOffset   OutOffset  InitFlow   MaxFlow   
;;-------------- ---------------- ---------------- ---------- ---------- ---------- ---------- ---------- ----------
C1               J2               J3               400        0.013      0.00000    0.00000    0.00000    0         
C6               J4               J5               400        0.01       0.00000    0.00000    0.00000    0         
C2               J6               J3               400        0.012      0.00000    0.00000    0.00000    0         
C9               J7               J8               500        0.013      0.00000    0.00000    0.00000    0         
C16              J11              J10              500        0.012      0.0000     0.0000     0.00000    0         
C3               J14              J3               200        0.012      0.000      0.000      0.00000    0         
C19              J17              J15              400        0.012      0.00000    0.00000    0.00000    0         
C11              J3               J15              200        0.012      0.0000     0.0000     0.00000    0         
C20              J16              J15              400        0.012      0.0000     0.0000     0.00000    0         
C22              J18              J15              500        0.013      0.0000     0.0000     0.00000    0         
C12              J9               J12              500        0.012      0.00000    0.00000    0.00000    0         
C17              J10              J12              200        0.012      0.0000     0.0000     0.00000    0         
C10              J8               T6               310.5      0.012      0.00000    0.00000    0.00000    0         
C13              J12              T3               375        0.012      0          0          0.00000    0         
C18              J13              T2               257        0.013      0.0000     0.0000     0.00000    0         
C23              J15              T1               305        0.013      0.0000     0.0000     0.00000    0         
C4               J1               T5               278        0.012      0.0000     0.0000     0.00000    0         
C7               J5               T4               204        0.012      0.00000    0.00000    0.00000    0         
C14              J19              Out_to_WWTP      200        0.011      0.0000     0.0000     0.0000     0         
C5               CSO7             J4               100        0.014      0.0000     0.0000     0.0000     0         
C8               CSO9             J7               100        0.0185     0.0000     0.0000     0.00000    0         
C15              CSO8             J11              100        0.012      0.0000     0.0000     0.0000     0         
C21              CSO10            J18              100        0.02       0.00000    0.00000    0.00000    0         

[ORIFICES]
;;Name           From Node        To Node          Type         Offset     Qcoeff     Gated    CloseTime 
;;-------------- ---------------- ---------------- ------------ ---------- ---------- -------- ----------
V4               T4               J6               SIDE         0.00000    1          NO       0         
V5               T5               J2               SIDE         0.0000     1          NO       0         
V1               T1               J19              SIDE         0.00000    1          NO       0         
V6               T6               J9               SIDE         0.0000     1          NO       0         
V3               T3               J14              SIDE         0.0000     1          NO       0         
V2               T2               J17              SIDE         0.0000     1          NO       0         

[XSECTIONS]
;;Link           Shape        Geom1            Geom2      Geom3      Geom4      Barrels    Culvert   
;;-------------- ------------ ---------------- ---------- ---------- ---------- ---------- ----------
C1               CIRCULAR     1                0          0          0          1                    
C6               CIRCULAR     0.3              0          0          0          1                    
C2               CIRCULAR     0.6              0          0          0          1                    
C9               CIRCULAR     0.5              0          0          0          1                    
C16              CIRCULAR     2                0          0          0          1                    
C3               CIRCULAR     1                0          0          0          1                    
C19              CIRCULAR     1                0          0          0          1                    
C11              CIRCULAR     2                0          0          0          1                    
C20              CIRCULAR     2                0          0          0          1                    
C22              CIRCULAR     0.8              0          0          0          1                    
C12              CIRCULAR     2                0          0          0          1                    
C17              CIRCULAR     2                0          0          0          1                    
C10              CIRCULAR     1.5              0          0          0          1                    
C13              CIRCULAR     2                0          0          0          1                    
C18              CIRCULAR     2                0          0          0          1                    
C23              CIRCULAR     1.5              0          0          0          1                    
C4               CIRCULAR     1                0          0          0          1                    
C7               CIRCULAR     1                0          0          0          1                    
C14              CIRCULAR     2                0          0          0          1                    
C5               CIRCULAR     0.2555           0          0          0          1                    
C8               CIRCULAR     0.318            0          0          0          1                    
C15              CIRCULAR     0.453            0          0          0          1                    
C21              CIRCULAR     0.44             0          0          0          1                    
V4               RECT_CLOSED  0.0264           0.3048     0          0
V5               RECT_CLOSED  0.013            0.3048     0          0
V1               RECT_CLOSED  0.09             0.3048     0          0
V6               RECT_CLOSED  0.0581           0.3048     0          0
V3               RECT_CLOSED  0.063            0.3048     0          0
V2               RECT_CLOSED  0.0465           0.3048     0          0

[LOSSES]
;;Link           Kentry     Kexit      Kavg       Flap Gate  Seepage   
;;-------------- ---------- ---------- ---------- ---------- ----------
C1               0.00000    0.00000    0.00000    NO         0.00000   
C6               0.00000    0.00000    0.00000    NO         0.00000   
C2               0.00000    0.00000    0.00000    NO         0.00000   
C9               0.00000    0.00000    0.00000    NO         0.00000   
C16              0.00000    0.00000    0.00000    NO         0         
C3               0.00000    0.00000    0.00000    NO         0         
C19              0.00000    0.00000    0.00000    NO         0.00000   
C11              0.00000    0.00000    0.00000    NO         0.00000   
C20              0.00000    0.00000    0.00000    NO         0.0000    
C22              0.00000    0.00000    0.00000    NO         0.0000    
C12              0.00000    0.00000    0.00000    NO         0.00000   
C17              0.00000    0.00000    0.00000    NO         0.0000    
C10              0.00000    0.00000    0.00000    NO         0.00000   
C13              0.00000    0.00000    0.00000    NO         0         
C18              0.00000    0.00000    0.00000    NO         0.0000    
C23              0.00000    0.00000    0.00000    NO         0.0000    
C4               0.00000    0.00000    0.00000    NO         0.00000   
C7               0.00000    0.00000    0.00000    NO         0.00000   
C14              0.0000     0.0000     0.0000     NO         0.0000    
C5               0.00000    0.00000    0.00000    NO         0.00000   
C8               0.00000    0.00000    0.00000    NO         0.00000   
C15              0.0000     0.0000     0.0000     NO         0.0000    
C21              0.00000    0.00000    0.00000    NO         0.00000   

[CONTROLS]
RULE R0
IF SIMULATION TIME > 0
THEN ORIFICE V1 SETTING = TIMESERIES pump_0

RULE R1
IF SIMULATION TIME > 0
THEN ORIFICE V2 SETTING = TIMESERIES pump_1

RULE R2
IF SIMULATION TIME > 0
THEN ORIFICE V3 SETTING = TIMESERIES pump_2

RULE R3
IF SIMULATION TIME > 0
THEN ORIFICE V4 SETTING = TIMESERIES pump_3

RULE R4
IF SIMULATION TIME > 0
THEN ORIFICE V5 SETTING = TIMESERIES pump_4

RULE R5
IF SIMULATION TIME > 0
THEN ORIFICE V6 SETTING = TIMESERIES pump_5



[DWF]
;;Node           Constituent      Baseline   Patterns  
;;-------------- ---------------- ---------- ----------
J1               FLOW             0.01269    "" "DWF"
CSO7             FLOW             0.00656    "" "DWF"
J5               FLOW             0.00288    "" "DWF"
CSO9             FLOW             0.00443    "" "DWF"
J8               FLOW             0.02126    "" "DWF"
CSO8             FLOW             0.00518    "DWFCommercial0"
J10              FLOW             0.00871    "" "DWF"
J13              FLOW             0.01056    "" "DWF"
J16              FLOW             0.01251    "" "DWF"
CSO10            FLOW             0.00314    "" "DWF"

[CURVES]
;;Name           Type       X-Value    Y-Value   
;;-------------- ---------- ---------- ----------
Tank1            Storage    0          140       
Tank1                       5          140       
;
Tank2            Storage    0          200       
Tank2                       5          200       
;
Tank3            Storage    0          520       
Tank3                       5          520       
;
Tank4            Storage    0          100       
Tank4                       5          100       
;
Tank5            Storage    0          100       
Tank5                       5          100       
;
Tank6            Storage    0          120       
Tank6                       5          120       

[TIMESERIES]
;;Name           Date       Time       Value     
;;-------------- ---------- ---------- ----------
pump_0           8/28/2015  08:10      3.3250945096529763
pump_0           8/28/2015  08:20      2.864314330400232
pump_0           8/28/2015  08:30      3.0662478434790783
pump_0           8/28/2015  08:40      2.630063407813947
pump_0           8/28/2015  08:50      2.927814498270098
pump_0           8/28/2015  09:00      2.368106177918145
pump_0           8/28/2015  09:10      4.442116669074507
pump_0           8/28/2015  09:20      3.599750872111951
pump_0           8/28/2015  09:30      2.3905521227877067
pump_0           8/28/2015  09:40      4.55478855203786
pump_0           8/28/2015  09:50      2.067159285155241
pump_0           8/28/2015  10:00      3.3175542858576863
pump_0           8/28/2015  10:10      5.206852387164888
pump_0           8/28/2015  10:20      3.215084500250617
pump_0           8/28/2015  10:30      1.6146961381027822
pump_0           8/28/2015  10:40      4.098228636859128
pump_0           8/28/2015  10:50      4.343103609615342
pump_0           8/28/2015  11:00      3.836209083107059
pump_0           8/28/2015  11:10      1.5688625533898277
pump_0           8/28/2015  11:20      2.241866770817148
pump_0           8/28/2015  11:30      2.337419792135814
pump_0           8/28/2015  11:40      2.5691734661301293
pump_0           8/28/2015  11:50      4.770484940871742
pump_0           8/28/2015  12:00      5.178539640936118
pump_0           8/28/2015  12:10      3.9546390799279143
pump_0           8/28/2015  12:20      1.9625854757452288
pump_0           8/28/2015  12:30      1.5358849664095657
pump_0           8/28/2015  12:40      1.4502043223968317
pump_0           8/28/2015  12:50      0.8964492851617809
pump_0           8/28/2015  13:00      3.079656912819903
pump_0           8/28/2015  13:10      2.0853048946225683
pump_0           8/28/2015  13:20      2.750645622522442
pump_0           8/28/2015  13:30      3.7044513065063307
pump_0           8/28/2015  13:40      2.514332103448515
pump_0           8/28/2015  13:50      0.9829334912867722
pump_0           8/28/2015  14:00      3.7722934783812807
pump_0           8/28/2015  14:10      4.7425620840194895
pump_0           8/28/2015  14:20      2.170342435609495
pump_0           8/28/2015  14:30      4.038242669785373
pump_0           8/28/2015  14:40      3.2680907427134747
pump_0           8/28/2015  14:50      2.7049382955066674
pump_0           8/28/2015  15:00      3.1054089184860074
pump_0           8/28/2015  15:10      3.208967064168845
pump_0           8/28/2015  15:20      1.3936095150532228
pump_0           8/28/2015  15:30      2.1778262706304083
pump_0           8/28/2015  15:40      3.84495280373389
;
pump_1           8/28/2015  08:10      2.5616945096529764
pump_1           8/28/2015  08:20      2.100914330400232
pump_1           8/28/2015  08:30      2.3028478434790784
pump_1           8/28/2015  08:40      1.8666634078139466
pump_1           8/28/2015  08:50      2.1644144982700984
pump_1           8/28/2015  09:00      1.6047061779181453
pump_1           8/28/2015  09:10      3.6787166690745075
pump_1           8/28/2015  09:20      2.836350872111951
pump_1           8/28/2015  09:30      1.6271521227877066
pump_1           8/28/2015  09:40      3.7913885520378603
pump_1           8/28/2015  09:50      1.3037592851552409
pump_1           8/28/2015  10:00      2.5541542858576864
pump_1           8/28/2015  10:10      4.443452387164888
pump_1           8/28/2015  10:20      2.322584500250617
pump_1           8/28/2015  10:30      0.7221961381027823
pump_1           8/28/2015  10:40      3.2057286368591282
pump_1           8/28/2015  10:50      3.4506036096153423
pump_1           8/28/2015  11:00      3.0728090831070594
pump_1           8/28/2015  11:10      0.8054625533898278
pump_1           8/28/2015  11:20      1.4784667708171477
pump_1           8/28/2015  11:30      1.5740197921358139
pump_1           8/28/2015  11:40      1.8057734661301295
pump_1           8/28/2015  11:50      4.007084940871742
pump_1           8/28/2015  12:00      4.415139640936118
pump_1           8/28/2015  12:10      3.1912390799279144
pump_1           8/28/2015  12:20      1.1991854757452287
pump_1           8/28/2015  12:30      0.7724849664095658
pump_1           8/28/2015  12:40      0.6868043223968318
pump_1           8/28/2015  12:50      0.1330492851617809
pump_1           8/28/2015  13:00      2.3162569128199033
pump_1           8/28/2015  13:10      1.3219048946225682
pump_1           8/28/2015  13:20      1.9872456225224422
pump_1           8/28/2015  13:30      2.941051306506331
pump_1           8/28/2015  13:40      1.7509321034485148
pump_1           8/28/2015  13:50      0.21953349128677221
pump_1           8/28/2015  14:00      3.008893478381281
pump_1           8/28/2015  14:10      3.9791620840194897
pump_1           8/28/2015  14:20      1.2778424356094946
pump_1           8/28/2015  14:30      3.145742669785373
pump_1           8/28/2015  14:40      2.3755907427134746
pump_1           8/28/2015  14:50      1.8124382955066671
pump_1           8/28/2015  15:00      2.2129089184860073
pump_1           8/28/2015  15:10      2.3164670641688447
pump_1           8/28/2015  15:20      0.5011095150532229
pump_1           8/28/2015  15:30      1.285326270630408
pump_1           8/28/2015  15:40      2.9524528037338897
;
pump_2           8/28/2015  08:10      2.975894509652976
pump_2           8/28/2015  08:20      2.515114330400232
pump_2           8/28/2015  08:30      2.7170478434790786
pump_2           8/28/2015  08:40      2.2808634078139467
pump_2           8/28/2015  08:50      2.2437144982700983
pump_2           8/28/2015  09:00      1.6840061779181454
pump_2           8/28/2015  09:10      3.7580166690745074
pump_2           8/28/2015  09:20      2.915650872111951
pump_2           8/28/2015  09:30      1.7064521227877067
pump_2           8/28/2015  09:40      3.87068855203786
pump_2           8/28/2015  09:50      1.383059285155241
pump_2           8/28/2015  10:00      2.6334542858576864
pump_2           8/28/2015  10:10      4.522752387164888
pump_2           8/28/2015  10:20      2.8658845002506173
pump_2           8/28/2015  10:30      1.2654961381027823
pump_2           8/28/2015  10:40      3.749028636859128
pump_2           8/28/2015  10:50      3.9939036096153426
pump_2           8/28/2015  11:00      3.1521090831070593
pump_2           8/28/2015  11:10      0.8847625533898278
pump_2           8/28/2015  11:20      1.5577667708171479
pump_2           8/28/2015  11:30      1.653319792135814
pump_2           8/28/2015  11:40      1.8850734661301296
pump_2           8/28/2015  11:50      4.086384940871742
pump_2           8/28/2015  12:00      4.494439640936118
pump_2           8/28/2015  12:10      3.2705390799279144
pump_2           8/28/2015  12:20      1.2784854757452289
pump_2           8/28/2015  12:30      1.1866849664095658
pump_2           8/28/2015  12:40      1.1010043223968318
pump_2           8/28/2015  12:50      0.547249285161781
pump_2           8/28/2015  13:00      2.7304569128199034
pump_2           8/28/2015  13:10      1.7361048946225683
pump_2           8/28/2015  13:20      2.4014456225224423
pump_2           8/28/2015  13:30      3.3552513065063305
pump_2           8/28/2015  13:40      2.165132103448515
pump_2           8/28/2015  13:50      0.6337334912867723
pump_2           8/28/2015  14:00      3.423093478381281
pump_2           8/28/2015  14:10      4.39336208401949
pump_2           8/28/2015  14:20      1.8211424356094947
pump_2           8/28/2015  14:30      3.6890426697853735
pump_2           8/28/2015  14:40      2.918890742713475
pump_2           8/28/2015  14:50      2.3557382955066672
pump_2           8/28/2015  15:00      2.7562089184860072
pump_2           8/28/2015  15:10      2.859767064168845
pump_2           8/28/2015  15:20      1.0444095150532229
pump_2           8/28/2015  15:30      1.8286262706304082
pump_2           8/28/2015  15:40      3.4957528037338896
;
pump_3           8/28/2015  08:10      2.5144945096529763
pump_3           8/28/2015  08:20      2.053714330400232
pump_3           8/28/2015  08:30      2.2556478434790783
pump_3           8/28/2015  08:40      1.8194634078139467
pump_3           8/28/2015  08:50      2.117214498270098
pump_3           8/28/2015  09:00      1.5575061779181454
pump_3           8/28/2015  09:10      3.6315166690745073
pump_3           8/28/2015  09:20      2.789150872111951
pump_3           8/28/2015  09:30      1.5799521227877067
pump_3           8/28/2015  09:40      3.74418855203786
pump_3           8/28/2015  09:50      1.256559285155241
pump_3           8/28/2015  10:00      2.5069542858576863
pump_3           8/28/2015  10:10      4.396252387164888
pump_3           8/28/2015  10:20      2.404484500250617
pump_3           8/28/2015  10:30      0.8040961381027822
pump_3           8/28/2015  10:40      3.2876286368591283
pump_3           8/28/2015  10:50      3.5325036096153424
pump_3           8/28/2015  11:00      3.0256090831070592
pump_3           8/28/2015  11:10      0.7582625533898277
pump_3           8/28/2015  11:20      1.4312667708171478
pump_3           8/28/2015  11:30      1.689719792135814
pump_3           8/28/2015  11:40      1.9214734661301296
pump_3           8/28/2015  11:50      4.122784940871742
pump_3           8/28/2015  12:00      4.530839640936118
pump_3           8/28/2015  12:10      3.3069390799279144
pump_3           8/28/2015  12:20      1.3148854757452288
pump_3           8/28/2015  12:30      0.7252849664095657
pump_3           8/28/2015  12:40      0.6396043223968317
pump_3           8/28/2015  12:50      0.08584928516178092
pump_3           8/28/2015  13:00      2.269056912819903
pump_3           8/28/2015  13:10      1.2747048946225683
pump_3           8/28/2015  13:20      1.9400456225224423
pump_3           8/28/2015  13:30      2.8938513065063307
pump_3           8/28/2015  13:40      1.703732103448515
pump_3           8/28/2015  13:50      0.17233349128677222
pump_3           8/28/2015  14:00      2.9616934783812807
pump_3           8/28/2015  14:10      3.9319620840194895
pump_3           8/28/2015  14:20      1.5226424356094947
pump_3           8/28/2015  14:30      3.3905426697853733
pump_3           8/28/2015  14:40      2.6203907427134747
pump_3           8/28/2015  14:50      2.057238295506667
pump_3           8/28/2015  15:00      2.4577089184860075
pump_3           8/28/2015  15:10      2.561267064168845
pump_3           8/28/2015  15:20      0.7459095150532229
pump_3           8/28/2015  15:30      1.5301262706304082
pump_3           8/28/2015  15:40      3.19725280373389
;
pump_4           8/28/2015  08:10      3.3250945096529763
pump_4           8/28/2015  08:20      2.864314330400232
pump_4           8/28/2015  08:30      3.0662478434790783
pump_4           8/28/2015  08:40      2.630063407813947
pump_4           8/28/2015  08:50      2.927814498270098
pump_4           8/28/2015  09:00      2.368106177918145
pump_4           8/28/2015  09:10      4.442116669074507
pump_4           8/28/2015  09:20      3.599750872111951
pump_4           8/28/2015  09:30      2.3905521227877067
pump_4           8/28/2015  09:40      4.55478855203786
pump_4           8/28/2015  09:50      2.067159285155241
pump_4           8/28/2015  10:00      3.3175542858576863
pump_4           8/28/2015  10:10      5.206852387164888
pump_4           8/28/2015  10:20      3.215084500250617
pump_4           8/28/2015  10:30      1.6146961381027822
pump_4           8/28/2015  10:40      4.098228636859128
pump_4           8/28/2015  10:50      4.343103609615342
pump_4           8/28/2015  11:00      3.836209083107059