[TITLE]
;;Project Title/Notes

[OPTIONS]
;;Option             Value
FLOW_UNITS           CMS
INFILTRATION         HORTON
FLOW_ROUTING         DYNWAVE
LINK_OFFSETS         DEPTH
MIN_SLOPE            0
ALLOW_PONDING        YES
SKIP_STEADY_STATE    NO

START_DATE           08/28/2015
START_TIME           08:00
REPORT_START_DATE    08/28/2015
REPORT_START_TIME    08:00
END_DATE             08/28/2015
END_TIME             15:50
SWEEP_START          01/01
SWEEP_END            12/31
DRY_DAYS             0
REPORT_STEP          00:01:00
WET_STEP             00:01:00
DRY_STEP             00:01:00
ROUTING_STEP         0:00:05 
RULE_STEP            00:00:00

INERTIAL_DAMPING     PARTIAL
NORMAL_FLOW_LIMITED  BOTH
FORCE_MAIN_EQUATION  H-W
VARIABLE_STEP        0.75
LENGTHENING_STEP     0
MIN_SURFAREA         1.167
MAX_TRIALS           8
HEAD_TOLERANCE       0.0015
SYS_FLOW_TOL         5
LAT_FLOW_TOL         5
MINIMUM_STEP         0.5
THREADS              1

[EVAPORATION]
;;Data Source    Parameters
;;-------------- ----------------
CONSTANT         0.0
DRY_ONLY         NO

[RAINGAGES]
;;Name           Format    Interval SCF      Source    
;;-------------- --------- ------ ------ ----------
RG1              INTENSITY 0:01     1.0      TIMESERIES Oneyear-2h      
RG2              INTENSITY 0:01     1.0      TIMESERIES Oneyear-2h      
RG3              INTENSITY 0:01     1.0      TIMESERIES Oneyear-2h      
RG4              INTENSITY 0:01     1.0      TIMESERIES Oneyear-2h      

[SUBCATCHMENTS]
;;Name           Rain Gage        Outlet           Area     %Imperv  Width    %Slope   CurbLen  SnowPack        
;;-------------- ---------------- ---------------- -------- -------- -------- -------- -------- ----------------
SC01             RG4              J16              33       100      2400     0.8      0.0                      
SC02             RG3              J13              22.75    100      1500     0.8      0                        
SC03             RG1              J10              18       100      2000     0.5      0                        
SC04             RG3              J5               6.9      100      200      0.7      0                        
SC05             RG4              J1               15.6     100      1000     0.5      0                        
SC06             RG2              J8               32.55    100      985      0.5      0                        
SC07             RG3              CSO7             4.75     100      360      0.51     0                        
SC08             RG1              CSO8             28       100      1950     0.45     0                        
SC09             RG2              CSO9             6.9      100      650      0.4      0                        
SC010            RG4              CSO10            11.75    100      650      0.5      0                        

[SUBAREAS]
;;Subcatchment   N-Imperv   N-Perv     S-Imperv   S-Perv     PctZero    RouteTo    PctRouted 
;;-------------- ---------- ---------- ---------- ---------- ---------- ---------- ----------
SC01             0.009      0.10       0.05       0.05       0.0        OUTLET    
SC02             0.009      0.1        0.05       0.05       0          OUTLET    
SC03             0.007      0.1        0.05       0.05       0          OUTLET    
SC04             0.009      0.1        0.05       0.05       0          OUTLET    
SC05             0.007      0.1        0.05       0.05       0          OUTLET    
SC06             0.01       0.1        0.05       0.05       0          OUTLET    
SC07             0.02       0.1        0.05       0.05       0          OUTLET    
SC08             0.01       0.1        0.05       0.05       0          OUTLET    
SC09             0.016      0.1        0.05       0.05       0          OUTLET    
SC010            0.008      0.1        0.05       0.05       0          OUTLET    

[INFILTRATION]
;;Subcatchment   MaxRate    MinRate    Decay      DryTime    MaxInfil  
;;-------------- ---------- ---------- ---------- ---------- ----------
SC01             3.0        0.5        4          7          0         
SC02             3.0        0.5        4          7          0         
SC03             3.0        0.5        4          7          0         
SC04             3.0        0.5        4          7          0         
SC05             3.0        0.5        4          7          0         
SC06             3.0        0.5        4          7          0         
SC07             3.0        0.5        4          7          0         
SC08             3.0        0.5        4          7          0         
SC09             3.0        0.5        4          7          0         
SC010            3.0        0.5        4          7          0         

[JUNCTIONS]
;;Name           Elevation  MaxDepth   InitDepth  SurDepth   Aponded   
;;-------------- ---------- ---------- ---------- ---------- ----------
J1               34.000000  2          0.000000   05.000000  0.000000  
J3               18.000000  2          0.000000   0.000000   0.000000  
CSO7             34.00000   1.2        0.000000   0.000000   0.000     
J5               32.00000   2.000000   0.000000   0.000000   0.000000  
CSO9             40.000000  2          0.000000   0.000000   0.000000  
J8               36.000000  3.000000   0.000000   0.000000   0.000000  
CSO8             32.000000  2          0.000000   0.00000    0.00000   
J10              29.000000  2.000000   0.000000   0.000000   0.000000  
J13              29.000000  2.000000   0.000000   0.000000   0.000000  
J15              15.000000  3.000000   0.000000   0.000000   0.000000  
J16              30.000000  2.000000   0.000000   0.000000   0.000000  
CSO10            30.000000  1.00000    0.000000   0.000000   0.000000  
J12              26.000000  2.000000   0.000000   0.000000   0.000000  
J4               33         2.0        0.00000    0.00000    0.00000   
J6               25         2          0.0000     0.0000     0.0000    
J2               25         2          0.00000    0.00000    0.00000   
J19              8          2          0.0000     0.0000     0.0000    
J9               29         2          0.0000     0.0000     0.0000    
J14              20         2          0.0000     0.0000     0.0000    
J17              20         2          0.0000     0.0000     0.0000    
J7               39         2          0.00000    0.00000    0.00000   
J11              31         2          0.0000     0.0000     0.0000    
J18              29         2          0.0000     0.0000     0.0000    

[OUTFALLS]
;;Name           Elevation  Type       Stage Data       Gated    Route To        
;;-------------- ---------- ---------- ---------------- -------- ----------------
Out_to_WWTP      6          FREE                        NO                       

[STORAGE]
;;Name           Elev.    MaxDepth   InitDepth  Shape      Curve Name/Params            N/A      Fevap    Psi      Ksat     IMD     
;;-------------- -------- ---------- ----------- ---------- ---------------------------- -------- --------          -------- --------
T5               27.000000 5.000000   0.000000   TABULAR    Tank5                        0.000000 0.000000
T4               27.000000 5.000000   0.000000   TABULAR    Tank4                        0.000000 0.000000
T6               31.000000 5.000000   0.000000   TABULAR    Tank6                        0        0       
T3               22.000000 5.000000   0.000000   TABULAR    Tank3                        0.000000 0.000000
T2               21.000000 5.000000   0.000000   TABULAR    Tank2                        0.000000 0.000000
T1               10.000000 5.000000   0.000000   TABULAR    Tank1                        0.000000 0.000000

[CONDUITS]
;;Name           From Node        To Node          Length     Roughness  InOffset   OutOffset  InitFlow   MaxFlow   
;;-------------- ---------------- ---------------- ---------- ---------- ---------- ---------- ---------- ----------
C1               J2               J3               400        0.013      0.00000    0.00000    0.00000    0         
C6               J4               J5               400        0.01       0.00000    0.00000    0.00000    0         
C2               J6               J3               400        0.012      0.00000    0.00000    0.00000    0         
C9               J7               J8               500        0.013      0.00000    0.00000    0.00000    0         
C16              J11              J10              500        0.012      0.0000     0.0000     0.00000    0         
C3               J14              J3               200        0.012      0.000      0.000      0.00000    0         
C19              J17              J15              400        0.012      0.00000    0.00000    0.00000    0         
C11              J3               J15              200        0.012      0.0000     0.0000     0.00000    0         
C20              J16              J15              400        0.012      0.0000     0.0000     0.00000    0         
C22              J18              J15              500        0.013      0.0000     0.0000     0.00000    0         
C12              J9               J12              500        0.012      0.00000    0.00000    0.00000    0         
C17              J10              J12              200        0.012      0.0000     0.0000     0.00000    0         
C10              J8               T6               310.5      0.012      0.00000    0.00000    0.00000    0         
C13              J12              T3               375        0.012      0          0          0.00000    0         
C18              J13              T2               257        0.013      0.0000     0.0000     0.00000    0         
C23              J15              T1               305        0.013      0.0000     0.0000     0.00000    0         
C4               J1               T5               278        0.012      0.0000     0.0000     0.00000    0         
C7               J5               T4               204        0.012      0.00000    0.00000    0.00000    0         
C14              J19              Out_to_WWTP      200        0.011      0.0000     0.0000     0.0000     0         
C5               CSO7             J4               100        0.014      0.0000     0.0000     0.0000     0         
C8               CSO9             J7               100        0.0185     0.0000     0.0000     0.00000    0         
C15              CSO8             J11              100        0.012      0.0000     0.0000     0.0000     0         
C21              CSO10            J18              100        0.02       0.00000    0.00000    0.00000    0         

[ORIFICES]
;;Name           From Node        To Node          Type         Offset     Qcoeff     Gated    CloseTime 
;;-------------- ---------------- ---------------- ------------ ---------- ---------- -------- ----------
V4               T4               J6               SIDE         0.00000    1          NO       0         
V5               T5               J2               SIDE         0.0000     1          NO       0         
V1               T1               J19              SIDE         0.00000    1          NO       0         
V6               T6               J9               SIDE         0.0000     1          NO       0         
V3               T3               J14              SIDE         0.0000     1          NO       0         
V2               T2               J17              SIDE         0.0000     1          NO       0         

[XSECTIONS]
;;Link           Shape        Geom1            Geom2      Geom3      Geom4      Barrels    Culvert   
;;-------------- ------------ ---------------- ---------- ---------- ---------- ---------- ----------
C1               CIRCULAR     1                0          0          0          1                    
C6               CIRCULAR     0.3              0          0          0          1                    
C2               CIRCULAR     0.6              0          0          0          1                    
C9               CIRCULAR     0.5              0          0          0          1                    
C16              CIRCULAR     2                0          0          0          1                    
C3               CIRCULAR     1                0          0          0          1                    
C19              CIRCULAR     1                0          0          0          1                    
C11              CIRCULAR     2                0          0          0          1                    
C20              CIRCULAR     2                0          0          0          1                    
C22              CIRCULAR     0.8              0          0          0          1                    
C12              CIRCULAR     2                0          0          0          1                    
C17              CIRCULAR     2                0          0          0          1                    
C10              CIRCULAR     1.5              0          0          0          1                    
C13              CIRCULAR     2                0          0          0          1                    
C18              CIRCULAR     2                0          0          0          1                    
C23              CIRCULAR     1.5              0          0          0          1                    
C4               CIRCULAR     1                0          0          0          1                    
C7               CIRCULAR     1                0          0          0          1                    
C14              CIRCULAR     2                0          0          0          1                    
C5               CIRCULAR     0.2555           0          0          0          1                    
C8               CIRCULAR     0.318            0          0          0          1                    
C15              CIRCULAR     0.453            0          0          0          1                    
C21              CIRCULAR     0.44             0          0          0          1                    
V4               RECT_CLOSED  0.0264           0.3048     0          0
V5               RECT_CLOSED  0.013            0.3048     0          0
V1               RECT_CLOSED  0.09             0.3048     0          0
V6               RECT_CLOSED  0.0581           0.3048     0          0
V3               RECT_CLOSED  0.063            0.3048     0          0
V2               RECT_CLOSED  0.0465           0.3048     0          0

[LOSSES]
;;Link           Kentry     Kexit      Kavg       Flap Gate  Seepage   
;;-------------- ---------- ---------- ---------- ---------- ----------
C1               0.00000    0.00000    0.00000    NO         0.00000   
C6               0.00000    0.00000    0.00000    NO         0.00000   
C2               0.00000    0.00000    0.00000    NO         0.00000   
C9               0.00000    0.00000    0.00000    NO         0.00000   
C16              0.00000    0.00000    0.00000    NO         0         
C3               0.00000    0.00000    0.00000    NO         0         
C19              0.00000    0.00000    0.00000    NO         0.00000   
C11              0.00000    0.00000    0.00000    NO         0.00000   
C20              0.00000    0.00000    0.00000    NO         0.0000    
C22              0.00000    0.00000    0.00000    NO         0.0000    
C12              0.00000    0.00000    0.00000    NO         0.00000   
C17              0.00000    0.00000    0.00000    NO         0.0000    
C10              0.00000    0.00000    0.00000    NO         0.00000   
C13              0.00000    0.00000    0.00000    NO         0         
C18              0.00000    0.00000    0.00000    NO         0.0000    
C23              0.00000    0.00000    0.00000    NO         0.0000    
C4               0.00000    0.00000    0.00000    NO         0.00000   
C7               0.00000    0.00000    0.00000    NO         0.00000   
C14              0.0000     0.0000     0.0000     NO         0.0000    
C5               0.00000    0.00000    0.00000    NO         0.00000   
C8               0.00000    0.00000    0.00000    NO         0.00000   
C15              0.0000     0.0000     0.0000     NO         0.0000    
C21              0.00000    0.00000    0.00000    NO         0.00000   

[CONTROLS]
RULE R0
IF SIMULATION TIME > 0
THEN ORIFICE V1 SETTING = TIMESERIES pump_0

RULE R1
IF SIMULATION TIME > 0
THEN ORIFICE V2 SETTING = TIMESERIES pump_1

RULE R2
IF SIMULATION TIME > 0
THEN ORIFICE V3 SETTING = TIMESERIES pump_2

RULE R3
IF SIMULATION TIME > 0
THEN ORIFICE V4 SETTING = TIMESERIES pump_3

RULE R4
IF SIMULATION TIME > 0
THEN ORIFICE V5 SETTING = TIMESERIES pump_4

RULE R5
IF SIMULATION TIME > 0
THEN ORIFICE V6 SETTING = TIMESERIES pump_5



[DWF]
;;Node           Constituent      Baseline   Patterns  
;;-------------- ---------------- ---------- ----------
J1               FLOW             0.01269    "" "DWF"
CSO7             FLOW             0.00656    "" "DWF"
J5               FLOW             0.00288    "" "DWF"
CSO9             FLOW             0.00443    "" "DWF"
J8               FLOW             0.02126    "" "DWF"
CSO8             FLOW             0.00518    "DWFCommercial0"
J10              FLOW             0.00871    "" "DWF"
J13              FLOW             0.01056    "" "DWF"
J16              FLOW             0.01251    "" "DWF"
CSO10            FLOW             0.00314    "" "DWF"

[CURVES]
;;Name           Type       X-Value    Y-Value   
;;-------------- ---------- ---------- ----------
Tank1            Storage    0          140       
Tank1                       5          140       
;
Tank2            Storage    0          200       
Tank2                       5          200       
;
Tank3            Storage    0          520       
Tank3                       5          520       
;
Tank4            Storage    0          100       
Tank4                       5          100       
;
Tank5            Storage    0          100       
Tank5                       5          100       
;
Tank6            Storage    0          120       
Tank6                       5          120       

[TIMESERIES]
;;Name           Date       Time       Value     
;;-------------- ---------- ---------- ----------
pump_0           8/28/2015  08:10      2.059765591584358
pump_0           8/28/2015  08:20      1.8068967860993332
pump_0           8/28/2015  08:30      1.7752294850449115
pump_0           8/28/2015  08:40      1.842471552214318
pump_0           8/28/2015  08:50      1.9992014276698762
pump_0           8/28/2015  09:00      1.833246150737271
pump_0           8/28/2015  09:10      1.9826070028429355
pump_0           8/28/2015  09:20      1.8970514597623662
pump_0           8/28/2015  09:30      1.9230020012817617
pump_0           8/28/2015  09:40      1.945191207003627
pump_0           8/28/2015  09:50      1.9647244839406963
pump_0           8/28/2015  10:00      1.7684194233539852
pump_0           8/28/2015  10:10      1.866560039726446
pump_0           8/28/2015  10:20      1.9119690088805643
pump_0           8/28/2015  10:30      1.6783760389213696
pump_0           8/28/2015  10:40      1.6761106653012074
pump_0           8/28/2015  10:50      1.875867251612582
pump_0           8/28/2015  11:00      1.9313620346816545
pump_0           8/28/2015  11:10      1.868635768103625
pump_0           8/28/2015  11:20      1.8548287539065673
pump_0           8/28/2015  11:30      2.066622590217566
pump_0           8/28/2015  11:40      1.9903112042774946
pump_0           8/28/2015  11:50      1.8361793479395603
pump_0           8/28/2015  12:00      1.9485240716997652
pump_0           8/28/2015  12:10      1.8741578420759055
pump_0           8/28/2015  12:20      2.1048689551199855
pump_0           8/28/2015  12:30      2.1303106445052373
pump_0           8/28/2015  12:40      1.8747500515637952
pump_0           8/28/2015  12:50      1.7161224595004474
pump_0           8/28/2015  13:00      1.9904446365801203
pump_0           8/28/2015  13:10      1.9586964981979893
pump_0           8/28/2015  13:20      1.8538089437770648
pump_0           8/28/2015  13:30      1.898871776915645
pump_0           8/28/2015  13:40      1.8824945511370679
pump_0           8/28/2015  13:50      1.9745647865904385
pump_0           8/28/2015  14:00      1.9648073754075641
pump_0           8/28/2015  14:10      1.8435949581371336
pump_0           8/28/2015  14:20      1.9392063450692647
pump_0           8/28/2015  14:30      1.9225709749768978
pump_0           8/28/2015  14:40      2.0706511023533514
pump_0           8/28/2015  14:50      1.8553475428635577
pump_0           8/28/2015  15:00      1.856840267901502
pump_0           8/28/2015  15:10      1.8669091487440723
pump_0           8/28/2015  15:20      1.8336345592928551
pump_0           8/28/2015  15:30      1.7568747351717353
pump_0           8/28/2015  15:40      2.0420689246694055
;
pump_1           8/28/2015  08:10      1.296365591584358
pump_1           8/28/2015  08:20      1.0434967860993332
pump_1           8/28/2015  08:30      0.8827294850449116
pump_1           8/28/2015  08:40      0.9499715522143181
pump_1           8/28/2015  08:50      1.1067014276698763
pump_1           8/28/2015  09:00      0.9407461507372712
pump_1           8/28/2015  09:10      1.0901070028429354
pump_1           8/28/2015  09:20      1.0045514597623662
pump_1           8/28/2015  09:30      1.0305020012817616
pump_1           8/28/2015  09:40      1.052691207003627
pump_1           8/28/2015  09:50      1.0722244839406965
pump_1           8/28/2015  10:00      0.8759194233539852
pump_1           8/28/2015  10:10      1.1031600397264458
pump_1           8/28/2015  10:20      1.1485690088805642
pump_1           8/28/2015  10:30      0.9149760389213696
pump_1           8/28/2015  10:40      0.9127106653012076
pump_1           8/28/2015  10:50      1.112467251612582
pump_1           8/28/2015  11:00      1.1679620346816546
pump_1           8/28/2015  11:10      1.105235768103625
pump_1           8/28/2015  11:20      1.0914287539065675
pump_1           8/28/2015  11:30      1.3032225902175658
pump_1           8/28/2015  11:40      1.2269112042774946
pump_1           8/28/2015  11:50      1.0727793479395602
pump_1           8/28/2015  12:00      1.185124071699765
pump_1           8/28/2015  12:10      1.1107578420759054
pump_1           8/28/2015  12:20      1.3414689551199852
pump_1           8/28/2015  12:30      1.366910644505237
pump_1           8/28/2015  12:40      1.1113500515637953
pump_1           8/28/2015  12:50      0.9527224595004475
pump_1           8/28/2015  13:00      1.2270446365801202
pump_1           8/28/2015  13:10      1.1952964981979892
pump_1           8/28/2015  13:20      1.090408943777065
pump_1           8/28/2015  13:30      1.1354717769156448
pump_1           8/28/2015  13:40      1.1190945511370678
pump_1           8/28/2015  13:50      1.2111647865904385
pump_1           8/28/2015  14:00      1.201407375407564
pump_1           8/28/2015  14:10      1.0801949581371335
pump_1           8/28/2015  14:20      1.1758063450692646
pump_1           8/28/2015  14:30      1.1591709749768977
pump_1           8/28/2015  14:40      1.3072511023533515
pump_1           8/28/2015  14:50      1.0919475428635577
pump_1           8/28/2015  15:00      1.0934402679015018
pump_1           8/28/2015  15:10      1.1035091487440725
pump_1           8/28/2015  15:20      1.0702345592928553
pump_1           8/28/2015  15:30      0.9934747351717353
pump_1           8/28/2015  15:40      1.2786689246694056
;
pump_2           8/28/2015  08:10      1.710565591584358
pump_2           8/28/2015  08:20      1.457696786099333
pump_2           8/28/2015  08:30      1.4260294850449116
pump_2           8/28/2015  08:40      1.493271552214318
pump_2           8/28/2015  08:50      1.6500014276698765
pump_2           8/28/2015  09:00      1.4840461507372713
pump_2           8/28/2015  09:10      1.6334070028429353
pump_2           8/28/2015  09:20      1.5478514597623663
pump_2           8/28/2015  09:30      1.5738020012817617
pump_2           8/28/2015  09:40      1.5959912070036268
pump_2           8/28/2015  09:50      1.6155244839406966
pump_2           8/28/2015  10:00      1.4192194233539852
pump_2           8/28/2015  10:10      1.1824600397264458
pump_2           8/28/2015  10:20      1.2278690088805644
pump_2           8/28/2015  10:30      1.3291760389213696
pump_2           8/28/2015  10:40      0.9920106653012075
pump_2           8/28/2015  10:50      1.1917672516125821
pump_2           8/28/2015  11:00      1.2472620346816545
pump_2           8/28/2015  11:10      1.184535768103625
pump_2           8/28/2015  11:20      1.1707287539065674
pump_2           8/28/2015  11:30      1.382522590217566
pump_2           8/28/2015  11:40      1.3062112042774945
pump_2           8/28/2015  11:50      1.1520793479395603
pump_2           8/28/2015  12:00      1.2644240716997652
pump_2           8/28/2015  12:10      1.1900578420759056
pump_2           8/28/2015  12:20      1.4207689551199854
pump_2           8/28/2015  12:30      1.4462106445052372
pump_2           8/28/2015  12:40      1.1906500515637952
pump_2           8/28/2015  12:50      1.0320224595004475
pump_2           8/28/2015  13:00      1.3063446365801203
pump_2           8/28/2015  13:10      1.2745964981979891
pump_2           8/28/2015  13:20      1.169708943777065
pump_2           8/28/2015  13:30      1.214771776915645
pump_2           8/28/2015  13:40      1.1983945511370677
pump_2           8/28/2015  13:50      1.2904647865904386
pump_2           8/28/2015  14:00      1.280707375407564
pump_2           8/28/2015  14:10      1.1594949581371334
pump_2           8/28/2015  14:20      1.2551063450692648
pump_2           8/28/2015  14:30      1.2384709749768978
pump_2           8/28/2015  14:40      1.3865511023533517
pump_2           8/28/2015  14:50      1.1712475428635578
pump_2           8/28/2015  15:00      1.172740267901502
pump_2           8/28/2015  15:10      1.1828091487440724
pump_2           8/28/2015  15:20      1.1495345592928552
pump_2           8/28/2015  15:30      1.0727747351717354
pump_2           8/28/2015  15:40      1.3579689246694058
;
pump_3           8/28/2015  08:10      1.249165591584358
pump_3           8/28/2015  08:20      0.9962967860993331
pump_3           8/28/2015  08:30      0.9646294850449115
pump_3           8/28/2015  08:40      1.031871552214318
pump_3           8/28/2015  08:50      1.1886014276698762
pump_3           8/28/2015  09:00      1.022646150737271
pump_3           8/28/2015  09:10      1.1720070028429355
pump_3           8/28/2015  09:20      1.0864514597623662
pump_3           8/28/2015  09:30      1.1124020012817617
pump_3           8/28/2015  09:40      1.134591207003627
pump_3           8/28/2015  09:50      1.1541244839406963
pump_3           8/28/2015  10:00      0.9578194233539852
pump_3           8/28/2015  10:10      1.055960039726446
pump_3           8/28/2015  10:20      1.1013690088805643
pump_3           8/28/2015  10:30      0.8677760389213696
pump_3           8/28/2015  10:40      1.0284106653012075
pump_3           8/28/2015  10:50      1.2281672516125821
pump_3           8/28/2015  11:00      1.2836620346816545
pump_3           8/28/2015  11:10      1.220935768103625
pump_3           8/28/2015  11:20      1.2071287539065674
pump_3           8/28/2015  11:30      1.418922590217566
pump_3           8/28/2015  11:40      1.3426112042774945
pump_3           8/28/2015  11:50      1.1884793479395603
pump_3           8/28/2015  12:00      1.3008240716997652
pump_3           8/28/2015  12:10      1.2264578420759056
pump_3           8/28/2015  12:20      1.4571689551199853
pump_3           8/28/2015  12:30      1.4826106445052372
pump_3           8/28/2015  12:40      1.2270500515637952
pump_3           8/28/2015  12:50      1.0684224595004475
pump_3           8/28/2015  13:00      1.3427446365801203
pump_3           8/28/2015  13:10      1.3109964981979891
pump_3           8/28/2015  13:20      1.206108943777065
pump_3           8/28/2015  13:30      1.251171776915645
pump_3           8/28/2015  13:40      1.2347945511370677
pump_3           8/28/2015  13:50      1.3268647865904386
pump_3           8/28/2015  14:00      1.317107375407564
pump_3           8/28/2015  14:10      1.1958949581371334
pump_3           8/28/2015  14:20      1.2915063450692648
pump_3           8/28/2015  14:30      1.2748709749768978
pump_3           8/28/2015  14:40      1.4229511023533516
pump_3           8/28/2015  14:50      1.2076475428635578
pump_3           8/28/2015  15:00      1.209140267901502
pump_3           8/28/2015  15:10      1.2192091487440724
pump_3           8/28/2015  15:20      1.1859345592928552
pump_3           8/28/2015  15:30      1.1091747351717354
pump_3           8/28/2015  15:40      1.3943689246694058
;
pump_4           8/28/2015  08:10      2.059765591584358
pump_4           8/28/2015  08:20      1.8068967860993332
pump_4           8/28/2015  08:30      1.7752294850449115
pump_4           8/28/2015  08:40      1.842471552214318
pump_4           8/28/2015  08:50      1.9992014276698762
pump_4           8/28/2015  09:00      1.833246150737271
pump_4           8/28/2015  09:10      1.9826070028429355
pump_4           8/28/2015  09:20      1.8970514597623662
pump_4           8/28/2015  09:30      1.9230020012817617
pump_4           8/28/2015  09:40      1.945191207003627
pump_4           8/28/2015  09:50      1.9647244839406963
pump_4           8/28/2015  10:00      1.7684194233539852
pump_4           8/28/2015  10:10      1.866560039726446
pump_4           8/28/2015  10:20      1.9119690088805643
pump_4           8/28/2015  10:30      1.6783760389213696
pump_4           8/28/2015  10:40      1.6761106653012074
pump_4           8/28/2015  10:50      1.875867251612582