[TITLE]
;;Project Title/Notes

[OPTIONS]
;;Option             Value
FLOW_UNITS           CMS
INFILTRATION         HORTON
FLOW_ROUTING         DYNWAVE
LINK_OFFSETS         DEPTH
MIN_SLOPE            0
ALLOW_PONDING        YES
SKIP_STEADY_STATE    NO

START_DATE           08/28/2015
START_TIME           08:00
REPORT_START_DATE    08/28/2015
REPORT_START_TIME    08:00
END_DATE             08/28/2015
END_TIME             15:50
SWEEP_START          01/01
SWEEP_END            12/31
DRY_DAYS             0
REPORT_STEP          00:01:00
WET_STEP             00:01:00
DRY_STEP             00:01:00
ROUTING_STEP         0:00:05 
RULE_STEP            00:00:00

INERTIAL_DAMPING     PARTIAL
NORMAL_FLOW_LIMITED  BOTH
FORCE_MAIN_EQUATION  H-W
VARIABLE_STEP        0.75
LENGTHENING_STEP     0
MIN_SURFAREA         1.167
MAX_TRIALS           8
HEAD_TOLERANCE       0.0015
SYS_FLOW_TOL         5
LAT_FLOW_TOL         5
MINIMUM_STEP         0.5
THREADS              1

[EVAPORATION]
;;Data Source    Parameters
;;-------------- ----------------
CONSTANT         0.0
DRY_ONLY         NO

[RAINGAGES]
;;Name           Format    Interval SCF      Source    
;;-------------- --------- ------ ------ ----------
RG1              INTENSITY 0:01     1.0      TIMESERIES Oneyear-2h      
RG2              INTENSITY 0:01     1.0      TIMESERIES Oneyear-2h      
RG3              INTENSITY 0:01     1.0      TIMESERIES Oneyear-2h      
RG4              INTENSITY 0:01     1.0      TIMESERIES Oneyear-2h      

[SUBCATCHMENTS]
;;Name           Rain Gage        Outlet           Area     %Imperv  Width    %Slope   CurbLen  SnowPack        
;;-------------- ---------------- ---------------- -------- -------- -------- -------- -------- ----------------
SC01             RG4              J16              33       100      2400     0.8      0.0                      
SC02             RG3              J13              22.75    100      1500     0.8      0                        
SC03             RG1              J10              18       100      2000     0.5      0                        
SC04             RG3              J5               6.9      100      200      0.7      0                        
SC05             RG4              J1               15.6     100      1000     0.5      0                        
SC06             RG2              J8               32.55    100      985      0.5      0                        
SC07             RG3              CSO7             4.75     100      360      0.51     0                        
SC08             RG1              CSO8             28       100      1950     0.45     0                        
SC09             RG2              CSO9             6.9      100      650      0.4      0                        
SC010            RG4              CSO10            11.75    100      650      0.5      0                        

[SUBAREAS]
;;Subcatchment   N-Imperv   N-Perv     S-Imperv   S-Perv     PctZero    RouteTo    PctRouted 
;;-------------- ---------- ---------- ---------- ---------- ---------- ---------- ----------
SC01             0.009      0.10       0.05       0.05       0.0        OUTLET    
SC02             0.009      0.1        0.05       0.05       0          OUTLET    
SC03             0.007      0.1        0.05       0.05       0          OUTLET    
SC04             0.009      0.1        0.05       0.05       0          OUTLET    
SC05             0.007      0.1        0.05       0.05       0          OUTLET    
SC06             0.01       0.1        0.05       0.05       0          OUTLET    
SC07             0.02       0.1        0.05       0.05       0          OUTLET    
SC08             0.01       0.1        0.05       0.05       0          OUTLET    
SC09             0.016      0.1        0.05       0.05       0          OUTLET    
SC010            0.008      0.1        0.05       0.05       0          OUTLET    

[INFILTRATION]
;;Subcatchment   MaxRate    MinRate    Decay      DryTime    MaxInfil  
;;-------------- ---------- ---------- ---------- ---------- ----------
SC01             3.0        0.5        4          7          0         
SC02             3.0        0.5        4          7          0         
SC03             3.0        0.5        4          7          0         
SC04             3.0        0.5        4          7          0         
SC05             3.0        0.5        4          7          0         
SC06             3.0        0.5        4          7          0         
SC07             3.0        0.5        4          7          0         
SC08             3.0        0.5        4          7          0         
SC09             3.0        0.5        4          7          0         
SC010            3.0        0.5        4          7          0         

[JUNCTIONS]
;;Name           Elevation  MaxDepth   InitDepth  SurDepth   Aponded   
;;-------------- ---------- ---------- ---------- ---------- ----------
J1               34.000000  2          0.000000   05.000000  0.000000  
J3               18.000000  2          0.000000   0.000000   0.000000  
CSO7             34.00000   1.2        0.000000   0.000000   0.000     
J5               32.00000   2.000000   0.000000   0.000000   0.000000  
CSO9             40.000000  2          0.000000   0.000000   0.000000  
J8               36.000000  3.000000   0.000000   0.000000   0.000000  
CSO8             32.000000  2          0.000000   0.00000    0.00000   
J10              29.000000  2.000000   0.000000   0.000000   0.000000  
J13              29.000000  2.000000   0.000000   0.000000   0.000000  
J15              15.000000  3.000000   0.000000   0.000000   0.000000  
J16              30.000000  2.000000   0.000000   0.000000   0.000000  
CSO10            30.000000  1.00000    0.000000   0.000000   0.000000  
J12              26.000000  2.000000   0.000000   0.000000   0.000000  
J4               33         2.0        0.00000    0.00000    0.00000   
J6               25         2          0.0000     0.0000     0.0000    
J2               25         2          0.00000    0.00000    0.00000   
J19              8          2          0.0000     0.0000     0.0000    
J9               29         2          0.0000     0.0000     0.0000    
J14              20         2          0.0000     0.0000     0.0000    
J17              20         2          0.0000     0.0000     0.0000    
J7               39         2          0.00000    0.00000    0.00000   
J11              31         2          0.0000     0.0000     0.0000    
J18              29         2          0.0000     0.0000     0.0000    

[OUTFALLS]
;;Name           Elevation  Type       Stage Data       Gated    Route To        
;;-------------- ---------- ---------- ---------------- -------- ----------------
Out_to_WWTP      6          FREE                        NO                       

[STORAGE]
;;Name           Elev.    MaxDepth   InitDepth  Shape      Curve Name/Params            N/A      Fevap    Psi      Ksat     IMD     
;;-------------- -------- ---------- ----------- ---------- ---------------------------- -------- --------          -------- --------
T5               27.000000 5.000000   0.000000   TABULAR    Tank5                        0.000000 0.000000
T4               27.000000 5.000000   0.000000   TABULAR    Tank4                        0.000000 0.000000
T6               31.000000 5.000000   0.000000   TABULAR    Tank6                        0        0       
T3               22.000000 5.000000   0.000000   TABULAR    Tank3                        0.000000 0.000000
T2               21.000000 5.000000   0.000000   TABULAR    Tank2                        0.000000 0.000000
T1               10.000000 5.000000   0.000000   TABULAR    Tank1                        0.000000 0.000000

[CONDUITS]
;;Name           From Node        To Node          Length     Roughness  InOffset   OutOffset  InitFlow   MaxFlow   
;;-------------- ---------------- ---------------- ---------- ---------- ---------- ---------- ---------- ----------
C1               J2               J3               400        0.013      0.00000    0.00000    0.00000    0         
C6               J4               J5               400        0.01       0.00000    0.00000    0.00000    0         
C2               J6               J3               400        0.012      0.00000    0.00000    0.00000    0         
C9               J7               J8               500        0.013      0.00000    0.00000    0.00000    0         
C16              J11              J10              500        0.012      0.0000     0.0000     0.00000    0         
C3               J14              J3               200        0.012      0.000      0.000      0.00000    0         
C19              J17              J15              400        0.012      0.00000    0.00000    0.00000    0         
C11              J3               J15              200        0.012      0.0000     0.0000     0.00000    0         
C20              J16              J15              400        0.012      0.0000     0.0000     0.00000    0         
C22              J18              J15              500        0.013      0.0000     0.0000     0.00000    0         
C12              J9               J12              500        0.012      0.00000    0.00000    0.00000    0         
C17              J10              J12              200        0.012      0.0000     0.0000     0.00000    0         
C10              J8               T6               310.5      0.012      0.00000    0.00000    0.00000    0         
C13              J12              T3               375        0.012      0          0          0.00000    0         
C18              J13              T2               257        0.013      0.0000     0.0000     0.00000    0         
C23              J15              T1               305        0.013      0.0000     0.0000     0.00000    0         
C4               J1               T5               278        0.012      0.0000     0.0000     0.00000    0         
C7               J5               T4               204        0.012      0.00000    0.00000    0.00000    0         
C14              J19              Out_to_WWTP      200        0.011      0.0000     0.0000     0.0000     0         
C5               CSO7             J4               100        0.014      0.0000     0.0000     0.0000     0         
C8               CSO9             J7               100        0.0185     0.0000     0.0000     0.00000    0         
C15              CSO8             J11              100        0.012      0.0000     0.0000     0.0000     0         
C21              CSO10            J18              100        0.02       0.00000    0.00000    0.00000    0         

[ORIFICES]
;;Name           From Node        To Node          Type         Offset     Qcoeff     Gated    CloseTime 
;;-------------- ---------------- ---------------- ------------ ---------- ---------- -------- ----------
V4               T4               J6               SIDE         0.00000    1          NO       0         
V5               T5               J2               SIDE         0.0000     1          NO       0         
V1               T1               J19              SIDE         0.00000    1          NO       0         
V6               T6               J9               SIDE         0.0000     1          NO       0         
V3               T3               J14              SIDE         0.0000     1          NO       0         
V2               T2               J17              SIDE         0.0000     1          NO       0         

[XSECTIONS]
;;Link           Shape        Geom1            Geom2      Geom3      Geom4      Barrels    Culvert   
;;-------------- ------------ ---------------- ---------- ---------- ---------- ---------- ----------
C1               CIRCULAR     1                0          0          0          1                    
C6               CIRCULAR     0.3              0          0          0          1                    
C2               CIRCULAR     0.6              0          0          0          1                    
C9               CIRCULAR     0.5              0          0          0          1                    
C16              CIRCULAR     2                0          0          0          1                    
C3               CIRCULAR     1                0          0          0          1                    
C19              CIRCULAR     1                0          0          0          1                    
C11              CIRCULAR     2                0          0          0          1                    
C20              CIRCULAR     2                0          0          0          1                    
C22              CIRCULAR     0.8              0          0          0          1                    
C12              CIRCULAR     2                0          0          0          1                    
C17              CIRCULAR     2                0          0          0          1                    
C10              CIRCULAR     1.5              0          0          0          1                    
C13              CIRCULAR     2                0          0          0          1                    
C18              CIRCULAR     2                0          0          0          1                    
C23              CIRCULAR     1.5              0          0          0          1                    
C4               CIRCULAR     1                0          0          0          1                    
C7               CIRCULAR     1                0          0          0          1                    
C14              CIRCULAR     2                0          0          0          1                    
C5               CIRCULAR     0.2555           0          0          0          1                    
C8               CIRCULAR     0.318            0          0          0          1                    
C15              CIRCULAR     0.453            0          0          0          1                    
C21              CIRCULAR     0.44             0          0          0          1                    
V4               RECT_CLOSED  0.0264           0.3048     0          0
V5               RECT_CLOSED  0.013            0.3048     0          0
V1               RECT_CLOSED  0.09             0.3048     0          0
V6               RECT_CLOSED  0.0581           0.3048     0          0
V3               RECT_CLOSED  0.063            0.3048     0          0
V2               RECT_CLOSED  0.0465           0.3048     0          0

[LOSSES]
;;Link           Kentry     Kexit      Kavg       Flap Gate  Seepage   
;;-------------- ---------- ---------- ---------- ---------- ----------
C1               0.00000    0.00000    0.00000    NO         0.00000   
C6               0.00000    0.00000    0.00000    NO         0.00000   
C2               0.00000    0.00000    0.00000    NO         0.00000   
C9               0.00000    0.00000    0.00000    NO         0.00000   
C16              0.00000    0.00000    0.00000    NO         0         
C3               0.00000    0.00000    0.00000    NO         0         
C19              0.00000    0.00000    0.00000    NO         0.00000   
C11              0.00000    0.00000    0.00000    NO         0.00000   
C20              0.00000    0.00000    0.00000    NO         0.0000    
C22              0.00000    0.00000    0.00000    NO         0.0000    
C12              0.00000    0.00000    0.00000    NO         0.00000   
C17              0.00000    0.00000    0.00000    NO         0.0000    
C10              0.00000    0.00000    0.00000    NO         0.00000   
C13              0.00000    0.00000    0.00000    NO         0         
C18              0.00000    0.00000    0.00000    NO         0.0000    
C23              0.00000    0.00000    0.00000    NO         0.0000    
C4               0.00000    0.00000    0.00000    NO         0.00000   
C7               0.00000    0.00000    0.00000    NO         0.00000   
C14              0.0000     0.0000     0.0000     NO         0.0000    
C5               0.00000    0.00000    0.00000    NO         0.00000   
C8               0.00000    0.00000    0.00000    NO         0.00000   
C15              0.0000     0.0000     0.0000     NO         0.0000    
C21              0.00000    0.00000    0.00000    NO         0.00000   

[CONTROLS]
RULE R0
IF SIMULATION TIME > 0
THEN ORIFICE V1 SETTING = TIMESERIES pump_0

RULE R1
IF SIMULATION TIME > 0
THEN ORIFICE V2 SETTING = TIMESERIES pump_1

RULE R2
IF SIMULATION TIME > 0
THEN ORIFICE V3 SETTING = TIMESERIES pump_2

RULE R3
IF SIMULATION TIME > 0
THEN ORIFICE V4 SETTING = TIMESERIES pump_3

RULE R4
IF SIMULATION TIME > 0
THEN ORIFICE V5 SETTING = TIMESERIES pump_4

RULE R5
IF SIMULATION TIME > 0
THEN ORIFICE V6 SETTING = TIMESERIES pump_5



[DWF]
;;Node           Constituent      Baseline   Patterns  
;;-------------- ---------------- ---------- ----------
J1               FLOW             0.01269    "" "DWF"
CSO7             FLOW             0.00656    "" "DWF"
J5               FLOW             0.00288    "" "DWF"
CSO9             FLOW             0.00443    "" "DWF"
J8               FLOW             0.02126    "" "DWF"
CSO8             FLOW             0.00518    "DWFCommercial0"
J10              FLOW             0.00871    "" "DWF"
J13              FLOW             0.01056    "" "DWF"
J16              FLOW             0.01251    "" "DWF"
CSO10            FLOW             0.00314    "" "DWF"

[CURVES]
;;Name           Type       X-Value    Y-Value   
;;-------------- ---------- ---------- ----------
Tank1            Storage    0          140       
Tank1                       5          140       
;
Tank2            Storage    0          200       
Tank2                       5          200       
;
Tank3            Storage    0          520       
Tank3                       5          520       
;
Tank4            Storage    0          100       
Tank4                       5          100       
;
Tank5            Storage    0          100       
Tank5                       5          100       
;
Tank6            Storage    0          120       
Tank6                       5          120       

[TIMESERIES]
;;Name           Date       Time       Value     
;;-------------- ---------- ---------- ----------
pump_0           8/28/2015  08:10      1.9347439015092527
pump_0           8/28/2015  08:20      1.9638922424313021
pump_0           8/28/2015  08:30      2.02426567181318
pump_0           8/28/2015  08:40      1.812253616047235
pump_0           8/28/2015  08:50      1.9343599106300515
pump_0           8/28/2015  09:00      1.779767532548215
pump_0           8/28/2015  09:10      1.940938250912294
pump_0           8/28/2015  09:20      2.098880015423683
pump_0           8/28/2015  09:30      1.8449317070468592
pump_0           8/28/2015  09:40      1.8302437995188416
pump_0           8/28/2015  09:50      2.0047979440517274
pump_0           8/28/2015  10:00      1.7717091763694848
pump_0           8/28/2015  10:10      2.006552092297299
pump_0           8/28/2015  10:20      1.8885256085090083
pump_0           8/28/2015  10:30      1.9249345161785008
pump_0           8/28/2015  10:40      1.8818229913174016
pump_0           8/28/2015  10:50      1.7996295423233128
pump_0           8/28/2015  11:00      1.8637368952672726
pump_0           8/28/2015  11:10      1.9456052336246112
pump_0           8/28/2015  11:20      2.00983424633339
pump_0           8/28/2015  11:30      1.785977776002368
pump_0           8/28/2015  11:40      1.8124325758208548
pump_0           8/28/2015  11:50      1.9537400796519826
pump_0           8/28/2015  12:00      1.8916913248112825
pump_0           8/28/2015  12:10      1.9262644792838959
pump_0           8/28/2015  12:20      1.6320862772491433
pump_0           8/28/2015  12:30      1.9592733526996335
pump_0           8/28/2015  12:40      1.9032655192797754
pump_0           8/28/2015  12:50      1.969755880799244
pump_0           8/28/2015  13:00      1.9371627663941577
pump_0           8/28/2015  13:10      1.824268278971074
pump_0           8/28/2015  13:20      1.8102352805421615
pump_0           8/28/2015  13:30      1.8322338086501282
pump_0           8/28/2015  13:40      1.774542534434203
pump_0           8/28/2015  13:50      2.026112427245617
pump_0           8/28/2015  14:00      1.7830327618766941
pump_0           8/28/2015  14:10      1.9788325066635235
pump_0           8/28/2015  14:20      1.892465569736416
pump_0           8/28/2015  14:30      1.8359847069897768
pump_0           8/28/2015  14:40      1.8462640269008654
pump_0           8/28/2015  14:50      1.9889635145097597
pump_0           8/28/2015  15:00      1.9468014935316464
pump_0           8/28/2015  15:10      1.7782023321932212
pump_0           8/28/2015  15:20      1.9962776401798359
pump_0           8/28/2015  15:30      1.8654968383813908
pump_0           8/28/2015  15:40      1.9281678763810333
;
pump_1           8/28/2015  08:10      1.1713439015092526
pump_1           8/28/2015  08:20      1.200492242431302
pump_1           8/28/2015  08:30      1.26086567181318
pump_1           8/28/2015  08:40      1.0488536160472348
pump_1           8/28/2015  08:50      1.1709599106300517
pump_1           8/28/2015  09:00      1.0163675325482149
pump_1           8/28/2015  09:10      1.177538250912294
pump_1           8/28/2015  09:20      1.335480015423683
pump_1           8/28/2015  09:30      1.081531707046859
pump_1           8/28/2015  09:40      1.0668437995188416
pump_1           8/28/2015  09:50      1.241397944051727
pump_1           8/28/2015  10:00      1.0083091763694847
pump_1           8/28/2015  10:10      1.2431520922972987
pump_1           8/28/2015  10:20      1.1251256085090082
pump_1           8/28/2015  10:30      1.0324345161785007
pump_1           8/28/2015  10:40      0.9893229913174016
pump_1           8/28/2015  10:50      1.0362295423233128
pump_1           8/28/2015  11:00      1.1003368952672725
pump_1           8/28/2015  11:10      1.1822052336246112
pump_1           8/28/2015  11:20      1.24643424633339
pump_1           8/28/2015  11:30      1.022577776002368
pump_1           8/28/2015  11:40      1.0490325758208547
pump_1           8/28/2015  11:50      1.1903400796519825
pump_1           8/28/2015  12:00      1.1282913248112825
pump_1           8/28/2015  12:10      1.1628644792838958
pump_1           8/28/2015  12:20      0.8686862772491434
pump_1           8/28/2015  12:30      1.1958733526996335
pump_1           8/28/2015  12:40      1.1398655192797753
pump_1           8/28/2015  12:50      1.206355880799244
pump_1           8/28/2015  13:00      1.1737627663941577
pump_1           8/28/2015  13:10      1.060868278971074
pump_1           8/28/2015  13:20      1.0468352805421615
pump_1           8/28/2015  13:30      1.0688338086501283
pump_1           8/28/2015  13:40      1.0111425344342029
pump_1           8/28/2015  13:50      1.2627124272456167
pump_1           8/28/2015  14:00      1.0196327618766943
pump_1           8/28/2015  14:10      1.2154325066635234
pump_1           8/28/2015  14:20      1.129065569736416
pump_1           8/28/2015  14:30      1.0725847069897767
pump_1           8/28/2015  14:40      1.0828640269008654
pump_1           8/28/2015  14:50      1.2255635145097599
pump_1           8/28/2015  15:00      1.1834014935316464
pump_1           8/28/2015  15:10      1.0148023321932214
pump_1           8/28/2015  15:20      1.232877640179836
pump_1           8/28/2015  15:30      1.1020968383813907
pump_1           8/28/2015  15:40      1.1647678763810334
;
pump_2           8/28/2015  08:10      1.5855439015092527
pump_2           8/28/2015  08:20      1.614692242431302
pump_2           8/28/2015  08:30      1.6750656718131802
pump_2           8/28/2015  08:40      1.463053616047235
pump_2           8/28/2015  08:50      1.5851599106300518
pump_2           8/28/2015  09:00      1.0956675325482148
pump_2           8/28/2015  09:10      1.2568382509122942
pump_2           8/28/2015  09:20      1.4147800154236831
pump_2           8/28/2015  09:30      1.160831707046859
pump_2           8/28/2015  09:40      1.1461437995188417
pump_2           8/28/2015  09:50      1.3206979440517272
pump_2           8/28/2015  10:00      1.0876091763694848
pump_2           8/28/2015  10:10      1.3224520922972989
pump_2           8/28/2015  10:20      1.2044256085090084
pump_2           8/28/2015  10:30      1.5757345161785008
pump_2           8/28/2015  10:40      1.5326229913174017
pump_2           8/28/2015  10:50      1.1155295423233127
pump_2           8/28/2015  11:00      1.1796368952672727
pump_2           8/28/2015  11:10      1.2615052336246113
pump_2           8/28/2015  11:20      1.32573424633339
pump_2           8/28/2015  11:30      1.1018777760023681
pump_2           8/28/2015  11:40      1.1283325758208549
pump_2           8/28/2015  11:50      1.2696400796519827
pump_2           8/28/2015  12:00      1.2075913248112826
pump_2           8/28/2015  12:10      1.2421644792838957
pump_2           8/28/2015  12:20      0.9479862772491434
pump_2           8/28/2015  12:30      1.2751733526996336
pump_2           8/28/2015  12:40      1.2191655192797755
pump_2           8/28/2015  12:50      1.285655880799244
pump_2           8/28/2015  13:00      1.2530627663941576
pump_2           8/28/2015  13:10      1.140168278971074
pump_2           8/28/2015  13:20      1.1261352805421616
pump_2           8/28/2015  13:30      1.1481338086501283
pump_2           8/28/2015  13:40      1.090442534434203
pump_2           8/28/2015  13:50      1.3420124272456169
pump_2           8/28/2015  14:00      1.0989327618766942
pump_2           8/28/2015  14:10      1.2947325066635236
pump_2           8/28/2015  14:20      1.2083655697364162
pump_2           8/28/2015  14:30      1.1518847069897766
pump_2           8/28/2015  14:40      1.1621640269008655
pump_2           8/28/2015  14:50      1.3048635145097598
pump_2           8/28/2015  15:00      1.2627014935316463
pump_2           8/28/2015  15:10      1.0941023321932213
pump_2           8/28/2015  15:20      1.312177640179836
pump_2           8/28/2015  15:30      1.1813968383813909
pump_2           8/28/2015  15:40      1.2440678763810333
;
pump_3           8/28/2015  08:10      1.1241439015092527
pump_3           8/28/2015  08:20      1.1532922424313021
pump_3           8/28/2015  08:30      1.2136656718131802
pump_3           8/28/2015  08:40      1.001653616047235
pump_3           8/28/2015  08:50      1.1237599106300515
pump_3           8/28/2015  09:00      0.9691675325482149
pump_3           8/28/2015  09:10      1.1303382509122941
pump_3           8/28/2015  09:20      1.288280015423683
pump_3           8/28/2015  09:30      1.0343317070468592
pump_3           8/28/2015  09:40      1.0196437995188417
pump_3           8/28/2015  09:50      1.1941979440517272
pump_3           8/28/2015  10:00      0.9611091763694848
pump_3           8/28/2015  10:10      1.1959520922972988
pump_3           8/28/2015  10:20      1.0779256085090083
pump_3           8/28/2015  10:30      1.1143345161785008
pump_3           8/28/2015  10:40      1.0712229913174016
pump_3           8/28/2015  10:50      1.1519295423233127
pump_3           8/28/2015  11:00      1.2160368952672727
pump_3           8/28/2015  11:10      1.2979052336246113
pump_3           8/28/2015  11:20      1.36213424633339
pump_3           8/28/2015  11:30      1.1382777760023681
pump_3           8/28/2015  11:40      1.1647325758208549
pump_3           8/28/2015  11:50      1.3060400796519827
pump_3           8/28/2015  12:00      1.2439913248112826
pump_3           8/28/2015  12:10      1.2785644792838957
pump_3           8/28/2015  12:20      0.9843862772491434
pump_3           8/28/2015  12:30      1.3115733526996336
pump_3           8/28/2015  12:40      1.2555655192797754
pump_3           8/28/2015  12:50      1.322055880799244
pump_3           8/28/2015  13:00      1.2894627663941576
pump_3           8/28/2015  13:10      1.176568278971074
pump_3           8/28/2015  13:20      1.1625352805421616
pump_3           8/28/2015  13:30      1.1845338086501283
pump_3           8/28/2015  13:40      1.126842534434203
pump_3           8/28/2015  13:50      1.3784124272456169
pump_3           8/28/2015  14:00      1.1353327618766942
pump_3           8/28/2015  14:10      1.3311325066635236
pump_3           8/28/2015  14:20      1.2447655697364162
pump_3           8/28/2015  14:30      1.1882847069897766
pump_3           8/28/2015  14:40      1.1985640269008655
pump_3           8/28/2015  14:50      1.3412635145097598
pump_3           8/28/2015  15:00      1.2991014935316463
pump_3           8/28/2015  15:10      1.1305023321932213
pump_3           8/28/2015  15:20      1.348577640179836
pump_3           8/28/2015  15:30      1.2177968383813909
pump_3           8/28/2015  15:40      1.2804678763810333
;
pump_4           8/28/2015  08:10      1.9347439015092527
pump_4           8/28/2015  08:20      1.9638922424313021
pump_4           8/28/2015  08:30      2.02426567181318
pump_4           8/28/2015  08:40      1.812253616047235
pump_4           8/28/2015  08:50      1.9343599106300515
pump_4           8/28/2015  09:00      1.779767532548215
pump_4           8/28/2015  09:10      1.940938250912294
pump_4           8/28/2015  09:20      2.098880015423683
pump_4           8/28/2015  09:30      1.8449317070468592
pump_4           8/28/2015  09:40      1.8302437995188416
pump_4           8/28/2015  09:50      2.0047979440517274
pump_4           8/28/2015  10:00      1.7717091763694848
pump_4           8/28/2015  10:10      2.006552092297299
pump_4           8/28/2015  10:20      1.8885256085090083
pump_4           8/28/2015  10:30      1.9249345161785008
pump_4           8/28/2015  10:40      1.8818229913174016
pump_4           8/28/2015  10:50      1.7996295423233128
pump_4           8/28/2015  11:00      1.8637368952672726