[TITLE]
;;Project Title/Notes

[OPTIONS]
;;Option             Value
FLOW_UNITS           CMS
INFILTRATION         HORTON
FLOW_ROUTING         DYNWAVE
LINK_OFFSETS         DEPTH
MIN_SLOPE            0
ALLOW_PONDING        YES
SKIP_STEADY_STATE    NO

START_DATE           08/28/2015
START_TIME           08:00
REPORT_START_DATE    08/28/2015
REPORT_START_TIME    08:00
END_DATE             08/28/2015
END_TIME             15:50
SWEEP_START          01/01
SWEEP_END            12/31
DRY_DAYS             0
REPORT_STEP          00:01:00
WET_STEP             00:01:00
DRY_STEP             00:01:00
ROUTING_STEP         0:00:05 
RULE_STEP            00:00:00

INERTIAL_DAMPING     PARTIAL
NORMAL_FLOW_LIMITED  BOTH
FORCE_MAIN_EQUATION  H-W
VARIABLE_STEP        0.75
LENGTHENING_STEP     0
MIN_SURFAREA         1.167
MAX_TRIALS           8
HEAD_TOLERANCE       0.0015
SYS_FLOW_TOL         5
LAT_FLOW_TOL         5
MINIMUM_STEP         0.5
THREADS              1

[EVAPORATION]
;;Data Source    Parameters
;;-------------- ----------------
CONSTANT         0.0
DRY_ONLY         NO

[RAINGAGES]
;;Name           Format    Interval SCF      Source    
;;-------------- --------- ------ ------ ----------
RG1              INTENSITY 0:01     1.0      TIMESERIES Oneyear-2h      
RG2              INTENSITY 0:01     1.0      TIMESERIES Oneyear-2h      
RG3              INTENSITY 0:01     1.0      TIMESERIES Oneyear-2h      
RG4              INTENSITY 0:01     1.0      TIMESERIES Oneyear-2h      

[SUBCATCHMENTS]
;;Name           Rain Gage        Outlet           Area     %Imperv  Width    %Slope   CurbLen  SnowPack        
;;-------------- ---------------- ---------------- -------- -------- -------- -------- -------- ----------------
SC01             RG4              J16              33       100      2400     0.8      0.0                      
SC02             RG3              J13              22.75    100      1500     0.8      0                        
SC03             RG1              J10              18       100      2000     0.5      0                        
SC04             RG3              J5               6.9      100      200      0.7      0                        
SC05             RG4              J1               15.6     100      1000     0.5      0                        
SC06             RG2              J8               32.55    100      985      0.5      0                        
SC07             RG3              CSO7             4.75     100      360      0.51     0                        
SC08             RG1              CSO8             28       100      1950     0.45     0                        
SC09             RG2              CSO9             6.9      100      650      0.4      0                        
SC010            RG4              CSO10            11.75    100      650      0.5      0                        

[SUBAREAS]
;;Subcatchment   N-Imperv   N-Perv     S-Imperv   S-Perv     PctZero    RouteTo    PctRouted 
;;-------------- ---------- ---------- ---------- ---------- ---------- ---------- ----------
SC01             0.009      0.10       0.05       0.05       0.0        OUTLET    
SC02             0.009      0.1        0.05       0.05       0          OUTLET    
SC03             0.007      0.1        0.05       0.05       0          OUTLET    
SC04             0.009      0.1        0.05       0.05       0          OUTLET    
SC05             0.007      0.1        0.05       0.05       0          OUTLET    
SC06             0.01       0.1        0.05       0.05       0          OUTLET    
SC07             0.02       0.1        0.05       0.05       0          OUTLET    
SC08             0.01       0.1        0.05       0.05       0          OUTLET    
SC09             0.016      0.1        0.05       0.05       0          OUTLET    
SC010            0.008      0.1        0.05       0.05       0          OUTLET    

[INFILTRATION]
;;Subcatchment   MaxRate    MinRate    Decay      DryTime    MaxInfil  
;;-------------- ---------- ---------- ---------- ---------- ----------
SC01             3.0        0.5        4          7          0         
SC02             3.0        0.5        4          7          0         
SC03             3.0        0.5        4          7          0         
SC04             3.0        0.5        4          7          0         
SC05             3.0        0.5        4          7          0         
SC06             3.0        0.5        4          7          0         
SC07             3.0        0.5        4          7          0         
SC08             3.0        0.5        4          7          0         
SC09             3.0        0.5        4          7          0         
SC010            3.0        0.5        4          7          0         

[JUNCTIONS]
;;Name           Elevation  MaxDepth   InitDepth  SurDepth   Aponded   
;;-------------- ---------- ---------- ---------- ---------- ----------
J1               34.000000  2          0.000000   05.000000  0.000000  
J3               18.000000  2          0.000000   0.000000   0.000000  
CSO7             34.00000   1.2        0.000000   0.000000   0.000     
J5               32.00000   2.000000   0.000000   0.000000   0.000000  
CSO9             40.000000  2          0.000000   0.000000   0.000000  
J8               36.000000  3.000000   0.000000   0.000000   0.000000  
CSO8             32.000000  2          0.000000   0.00000    0.00000   
J10              29.000000  2.000000   0.000000   0.000000   0.000000  
J13              29.000000  2.000000   0.000000   0.000000   0.000000  
J15              15.000000  3.000000   0.000000   0.000000   0.000000  
J16              30.000000  2.000000   0.000000   0.000000   0.000000  
CSO10            30.000000  1.00000    0.000000   0.000000   0.000000  
J12              26.000000  2.000000   0.000000   0.000000   0.000000  
J4               33         2.0        0.00000    0.00000    0.00000   
J6               25         2          0.0000     0.0000     0.0000    
J2               25         2          0.00000    0.00000    0.00000   
J19              8          2          0.0000     0.0000     0.0000    
J9               29         2          0.0000     0.0000     0.0000    
J14              20         2          0.0000     0.0000     0.0000    
J17              20         2          0.0000     0.0000     0.0000    
J7               39         2          0.00000    0.00000    0.00000   
J11              31         2          0.0000     0.0000     0.0000    
J18              29         2          0.0000     0.0000     0.0000    

[OUTFALLS]
;;Name           Elevation  Type       Stage Data       Gated    Route To        
;;-------------- ---------- ---------- ---------------- -------- ----------------
Out_to_WWTP      6          FREE                        NO                       

[STORAGE]
;;Name           Elev.    MaxDepth   InitDepth  Shape      Curve Name/Params            N/A      Fevap    Psi      Ksat     IMD     
;;-------------- -------- ---------- ----------- ---------- ---------------------------- -------- --------          -------- --------
T5               27.000000 5.000000   0.000000   TABULAR    Tank5                        0.000000 0.000000
T4               27.000000 5.000000   0.000000   TABULAR    Tank4                        0.000000 0.000000
T6               31.000000 5.000000   0.000000   TABULAR    Tank6                        0        0       
T3               22.000000 5.000000   0.000000   TABULAR    Tank3                        0.000000 0.000000
T2               21.000000 5.000000   0.000000   TABULAR    Tank2                        0.000000 0.000000
T1               10.000000 5.000000   0.000000   TABULAR    Tank1                        0.000000 0.000000

[CONDUITS]
;;Name           From Node        To Node          Length     Roughness  InOffset   OutOffset  InitFlow   MaxFlow   
;;-------------- ---------------- ---------------- ---------- ---------- ---------- ---------- ---------- ----------
C1               J2               J3               400        0.013      0.00000    0.00000    0.00000    0         
C6               J4               J5               400        0.01       0.00000    0.00000    0.00000    0         
C2               J6               J3               400        0.012      0.00000    0.00000    0.00000    0         
C9               J7               J8               500        0.013      0.00000    0.00000    0.00000    0         
C16              J11              J10              500        0.012      0.0000     0.0000     0.00000    0         
C3               J14              J3               200        0.012      0.000      0.000      0.00000    0         
C19              J17              J15              400        0.012      0.00000    0.00000    0.00000    0         
C11              J3               J15              200        0.012      0.0000     0.0000     0.00000    0         
C20              J16              J15              400        0.012      0.0000     0.0000     0.00000    0         
C22              J18              J15              500        0.013      0.0000     0.0000     0.00000    0         
C12              J9               J12              500        0.012      0.00000    0.00000    0.00000    0         
C17              J10              J12              200        0.012      0.0000     0.0000     0.00000    0         
C10              J8               T6               310.5      0.012      0.00000    0.00000    0.00000    0         
C13              J12              T3               375        0.012      0          0          0.00000    0         
C18              J13              T2               257        0.013      0.0000     0.0000     0.00000    0         
C23              J15              T1               305        0.013      0.0000     0.0000     0.00000    0         
C4               J1               T5               278        0.012      0.0000     0.0000     0.00000    0         
C7               J5               T4               204        0.012      0.00000    0.00000    0.00000    0         
C14              J19              Out_to_WWTP      200        0.011      0.0000     0.0000     0.0000     0         
C5               CSO7             J4               100        0.014      0.0000     0.0000     0.0000     0         
C8               CSO9             J7               100        0.0185     0.0000     0.0000     0.00000    0         
C15              CSO8             J11              100        0.012      0.0000     0.0000     0.0000     0         
C21              CSO10            J18              100        0.02       0.00000    0.00000    0.00000    0         

[ORIFICES]
;;Name           From Node        To Node          Type         Offset     Qcoeff     Gated    CloseTime 
;;-------------- ---------------- ---------------- ------------ ---------- ---------- -------- ----------
V4               T4               J6               SIDE         0.00000    1          NO       0         
V5               T5               J2               SIDE         0.0000     1          NO       0         
V1               T1               J19              SIDE         0.00000    1          NO       0         
V6               T6               J9               SIDE         0.0000     1          NO       0         
V3               T3               J14              SIDE         0.0000     1          NO       0         
V2               T2               J17              SIDE         0.0000     1          NO       0         

[XSECTIONS]
;;Link           Shape        Geom1            Geom2      Geom3      Geom4      Barrels    Culvert   
;;-------------- ------------ ---------------- ---------- ---------- ---------- ---------- ----------
C1               CIRCULAR     1                0          0          0          1                    
C6               CIRCULAR     0.3              0          0          0          1                    
C2               CIRCULAR     0.6              0          0          0          1                    
C9               CIRCULAR     0.5              0          0          0          1                    
C16              CIRCULAR     2                0          0          0          1                    
C3               CIRCULAR     1                0          0          0          1                    
C19              CIRCULAR     1                0          0          0          1                    
C11              CIRCULAR     2                0          0          0          1                    
C20              CIRCULAR     2                0          0          0          1                    
C22              CIRCULAR     0.8              0          0          0          1                    
C12              CIRCULAR     2                0          0          0          1                    
C17              CIRCULAR     2                0          0          0          1                    
C10              CIRCULAR     1.5              0          0          0          1                    
C13              CIRCULAR     2                0          0          0          1                    
C18              CIRCULAR     2                0          0          0          1                    
C23              CIRCULAR     1.5              0          0          0          1                    
C4               CIRCULAR     1                0          0          0          1                    
C7               CIRCULAR     1                0          0          0          1                    
C14              CIRCULAR     2                0          0          0          1                    
C5               CIRCULAR     0.2555           0          0          0          1                    
C8               CIRCULAR     0.318            0          0          0          1                    
C15              CIRCULAR     0.453            0          0          0          1                    
C21              CIRCULAR     0.44             0          0          0          1                    
V4               RECT_CLOSED  0.0264           0.3048     0          0
V5               RECT_CLOSED  0.013            0.3048     0          0
V1               RECT_CLOSED  0.09             0.3048     0          0
V6               RECT_CLOSED  0.0581           0.3048     0          0
V3               RECT_CLOSED  0.063            0.3048     0          0
V2               RECT_CLOSED  0.0465           0.3048     0          0

[LOSSES]
;;Link           Kentry     Kexit      Kavg       Flap Gate  Seepage   
;;-------------- ---------- ---------- ---------- ---------- ----------
C1               0.00000    0.00000    0.00000    NO         0.00000   
C6               0.00000    0.00000    0.00000    NO         0.00000   
C2               0.00000    0.00000    0.00000    NO         0.00000   
C9               0.00000    0.00000    0.00000    NO         0.00000   
C16              0.00000    0.00000    0.00000    NO         0         
C3               0.00000    0.00000    0.00000    NO         0         
C19              0.00000    0.00000    0.00000    NO         0.00000   
C11              0.00000    0.00000    0.00000    NO         0.00000   
C20              0.00000    0.00000    0.00000    NO         0.0000    
C22              0.00000    0.00000    0.00000    NO         0.0000    
C12              0.00000    0.00000    0.00000    NO         0.00000   
C17              0.00000    0.00000    0.00000    NO         0.0000    
C10              0.00000    0.00000    0.00000    NO         0.00000   
C13              0.00000    0.00000    0.00000    NO         0         
C18              0.00000    0.00000    0.00000    NO         0.0000    
C23              0.00000    0.00000    0.00000    NO         0.0000    
C4               0.00000    0.00000    0.00000    NO         0.00000   
C7               0.00000    0.00000    0.00000    NO         0.00000   
C14              0.0000     0.0000     0.0000     NO         0.0000    
C5               0.00000    0.00000    0.00000    NO         0.00000   
C8               0.00000    0.00000    0.00000    NO         0.00000   
C15              0.0000     0.0000     0.0000     NO         0.0000    
C21              0.00000    0.00000    0.00000    NO         0.00000   

[CONTROLS]
RULE R0
IF SIMULATION TIME > 0
THEN ORIFICE V1 SETTING = TIMESERIES pump_0

RULE R1
IF SIMULATION TIME > 0
THEN ORIFICE V2 SETTING = TIMESERIES pump_1

RULE R2
IF SIMULATION TIME > 0
THEN ORIFICE V3 SETTING = TIMESERIES pump_2

RULE R3
IF SIMULATION TIME > 0
THEN ORIFICE V4 SETTING = TIMESERIES pump_3

RULE R4
IF SIMULATION TIME > 0
THEN ORIFICE V5 SETTING = TIMESERIES pump_4

RULE R5
IF SIMULATION TIME > 0
THEN ORIFICE V6 SETTING = TIMESERIES pump_5



[DWF]
;;Node           Constituent      Baseline   Patterns  
;;-------------- ---------------- ---------- ----------
J1               FLOW             0.01269    "" "DWF"
CSO7             FLOW             0.00656    "" "DWF"
J5               FLOW             0.00288    "" "DWF"
CSO9             FLOW             0.00443    "" "DWF"
J8               FLOW             0.02126    "" "DWF"
CSO8             FLOW             0.00518    "DWFCommercial0"
J10              FLOW             0.00871    "" "DWF"
J13              FLOW             0.01056    "" "DWF"
J16              FLOW             0.01251    "" "DWF"
CSO10            FLOW             0.00314    "" "DWF"

[CURVES]
;;Name           Type       X-Value    Y-Value   
;;-------------- ---------- ---------- ----------
Tank1            Storage    0          140       
Tank1                       5          140       
;
Tank2            Storage    0          200       
Tank2                       5          200       
;
Tank3            Storage    0          520       
Tank3                       5          520       
;
Tank4            Storage    0          100       
Tank4                       5          100       
;
Tank5            Storage    0          100       
Tank5                       5          100       
;
Tank6            Storage    0          120       
Tank6                       5          120       

[TIMESERIES]
;;Name           Date       Time       Value     
;;-------------- ---------- ---------- ----------
pump_0           8/28/2015  08:10      2.64292186186044
pump_0           8/28/2015  08:20      3.037875912996575
pump_0           8/28/2015  08:30      2.0673281722078496
pump_0           8/28/2015  08:40      3.8595327475305234
pump_0           8/28/2015  08:50      4.078721393795536
pump_0           8/28/2015  09:00      2.0303258060765117
pump_0           8/28/2015  09:10      2.9281070583809012
pump_0           8/28/2015  09:20      0.9820438313110289
pump_0           8/28/2015  09:30      1.264805250015056
pump_0           8/28/2015  09:40      2.2335782941554077
pump_0           8/28/2015  09:50      3.369531691924865
pump_0           8/28/2015  10:00      1.5470388077442099
pump_0           8/28/2015  10:10      3.696741600296154
pump_0           8/28/2015  10:20      3.7242255127537183
pump_0           8/28/2015  10:30      3.6779071002291284
pump_0           8/28/2015  10:40      4.747530101971321
pump_0           8/28/2015  10:50      4.865564841785758
pump_0           8/28/2015  11:00      3.4932157278932707
pump_0           8/28/2015  11:10      2.0430783981404037
pump_0           8/28/2015  11:20      2.0623768394413005
pump_0           8/28/2015  11:30      2.7542490774939683
pump_0           8/28/2015  11:40      2.341190472935673
pump_0           8/28/2015  11:50      2.7110259804602537
pump_0           8/28/2015  12:00      2.1347105575698775
pump_0           8/28/2015  12:10      4.151865485986209
pump_0           8/28/2015  12:20      3.31030584459465
pump_0           8/28/2015  12:30      2.3438080077432883
pump_0           8/28/2015  12:40      2.0753280795881865
pump_0           8/28/2015  12:50      0.6340461267121964
pump_0           8/28/2015  13:00      3.4591716615584915
pump_0           8/28/2015  13:10      2.591267640520279
pump_0           8/28/2015  13:20      2.6139314727429745
pump_0           8/28/2015  13:30      3.94641825958536
pump_0           8/28/2015  13:40      3.501701843150829
pump_0           8/28/2015  13:50      2.1907725899374513
pump_0           8/28/2015  14:00      3.188577207632802
pump_0           8/28/2015  14:10      0.9547625753115021
pump_0           8/28/2015  14:20      3.253052625369782
pump_0           8/28/2015  14:30      2.846026829013707
pump_0           8/28/2015  14:40      5.562087469688892
pump_0           8/28/2015  14:50      3.5623974049447433
pump_0           8/28/2015  15:00      3.1653803162899385
pump_0           8/28/2015  15:10      3.6020156799412244
pump_0           8/28/2015  15:20      2.5039601725873575
pump_0           8/28/2015  15:30      2.9477218727312353
pump_0           8/28/2015  15:40      4.1340726440244016
;
pump_1           8/28/2015  08:10      1.8795218618604403
pump_1           8/28/2015  08:20      2.274475912996575
pump_1           8/28/2015  08:30      1.3039281722078495
pump_1           8/28/2015  08:40      3.0961327475305236
pump_1           8/28/2015  08:50      3.315321393795537
pump_1           8/28/2015  09:00      1.2669258060765116
pump_1           8/28/2015  09:10      2.1647070583809014
pump_1           8/28/2015  09:20      0.2186438313110289
pump_1           8/28/2015  09:30      0.501405250015056
pump_1           8/28/2015  09:40      1.4701782941554076
pump_1           8/28/2015  09:50      2.606131691924865
pump_1           8/28/2015  10:00      0.7836388077442099
pump_1           8/28/2015  10:10      2.933341600296154
pump_1           8/28/2015  10:20      2.831725512753718
pump_1           8/28/2015  10:30      2.7854071002291283
pump_1           8/28/2015  10:40      3.855030101971321
pump_1           8/28/2015  10:50      3.973064841785758
pump_1           8/28/2015  11:00      2.729815727893271
pump_1           8/28/2015  11:10      1.2796783981404036
pump_1           8/28/2015  11:20      1.2989768394413004
pump_1           8/28/2015  11:30      1.9908490774939682
pump_1           8/28/2015  11:40      1.5777904729356729
pump_1           8/28/2015  11:50      1.9476259804602536
pump_1           8/28/2015  12:00      1.3713105575698772
pump_1           8/28/2015  12:10      3.3884654859862096
pump_1           8/28/2015  12:20      2.54690584459465
pump_1           8/28/2015  12:30      1.5804080077432883
pump_1           8/28/2015  12:40      1.3119280795881865
pump_1           8/28/2015  12:50      -0.1293538732878036
pump_1           8/28/2015  13:00      2.6957716615584917
pump_1           8/28/2015  13:10      1.827867640520279
pump_1           8/28/2015  13:20      1.8505314727429747
pump_1           8/28/2015  13:30      3.18301825958536
pump_1           8/28/2015  13:40      2.738301843150829
pump_1           8/28/2015  13:50      1.4273725899374512
pump_1           8/28/2015  14:00      2.425177207632802
pump_1           8/28/2015  14:10      0.1913625753115021
pump_1           8/28/2015  14:20      2.360552625369782
pump_1           8/28/2015  14:30      1.9535268290137071
pump_1           8/28/2015  14:40      4.669587469688892
pump_1           8/28/2015  14:50      2.6698974049447433
pump_1           8/28/2015  15:00      2.2728803162899385
pump_1           8/28/2015  15:10      2.7095156799412243
pump_1           8/28/2015  15:20      1.6114601725873574
pump_1           8/28/2015  15:30      2.0552218727312357
pump_1           8/28/2015  15:40      3.2415726440244015
;
pump_2           8/28/2015  08:10      2.2937218618604405
pump_2           8/28/2015  08:20      2.688675912996575
pump_2           8/28/2015  08:30      1.7181281722078496
pump_2           8/28/2015  08:40      3.5103327475305237
pump_2           8/28/2015  08:50      3.7295213937955367
pump_2           8/28/2015  09:00      1.3462258060765118
pump_2           8/28/2015  09:10      2.2440070583809013
pump_2           8/28/2015  09:20      0.2979438313110289
pump_2           8/28/2015  09:30      0.580705250015056
pump_2           8/28/2015  09:40      1.5494782941554077
pump_2           8/28/2015  09:50      2.685431691924865
pump_2           8/28/2015  10:00      0.86293880774421
pump_2           8/28/2015  10:10      3.012641600296154
pump_2           8/28/2015  10:20      3.3750255127537185
pump_2           8/28/2015  10:30      3.3287071002291286
pump_2           8/28/2015  10:40      4.398330101971321
pump_2           8/28/2015  10:50      4.516364841785758
pump_2           8/28/2015  11:00      2.809115727893271
pump_2           8/28/2015  11:10      1.3589783981404038
pump_2           8/28/2015  11:20      1.3782768394413005
pump_2           8/28/2015  11:30      2.0701490774939684
pump_2           8/28/2015  11:40      1.657090472935673
pump_2           8/28/2015  11:50      2.0269259804602537
pump_2           8/28/2015  12:00      1.4506105575698773
pump_2           8/28/2015  12:10      3.4677654859862095
pump_2           8/28/2015  12:20      2.62620584459465
pump_2           8/28/2015  12:30      1.6597080077432884
pump_2           8/28/2015  12:40      1.3912280795881866
pump_2           8/28/2015  12:50      0.28484612671219645
pump_2           8/28/2015  13:00      3.1099716615584914
pump_2           8/28/2015  13:10      2.242067640520279
pump_2           8/28/2015  13:20      2.264731472742975
pump_2           8/28/2015  13:30      3.59721825958536
pump_2           8/28/2015  13:40      3.152501843150829
pump_2           8/28/2015  13:50      1.8415725899374513
pump_2           8/28/2015  14:00      2.8393772076328023
pump_2           8/28/2015  14:10      0.6055625753115021
pump_2           8/28/2015  14:20      2.9038526253697823
pump_2           8/28/2015  14:30      2.496826829013707
pump_2           8/28/2015  14:40      5.2128874696888925
pump_2           8/28/2015  14:50      3.2131974049447436
pump_2           8/28/2015  15:00      2.8161803162899384
pump_2           8/28/2015  15:10      3.2528156799412242
pump_2           8/28/2015  15:20      2.1547601725873573
pump_2           8/28/2015  15:30      2.5985218727312356
pump_2           8/28/2015  15:40      3.784872644024402
;
pump_3           8/28/2015  08:10      1.8323218618604404
pump_3           8/28/2015  08:20      2.227275912996575
pump_3           8/28/2015  08:30      1.2567281722078496
pump_3           8/28/2015  08:40      3.0489327475305235
pump_3           8/28/2015  08:50      3.268121393795537
pump_3           8/28/2015  09:00      1.2197258060765117
pump_3           8/28/2015  09:10      2.1175070583809013
pump_3           8/28/2015  09:20      0.17144383131102892
pump_3           8/28/2015  09:30      0.45420525001505596
pump_3           8/28/2015  09:40      1.4229782941554077
pump_3           8/28/2015  09:50      2.558931691924865
pump_3           8/28/2015  10:00      0.7364388077442099
pump_3           8/28/2015  10:10      2.886141600296154
pump_3           8/28/2015  10:20      2.9136255127537183
pump_3           8/28/2015  10:30      2.8673071002291284
pump_3           8/28/2015  10:40      3.936930101971321
pump_3           8/28/2015  10:50      4.054964841785758
pump_3           8/28/2015  11:00      2.6826157278932707
pump_3           8/28/2015  11:10      1.2324783981404037
pump_3           8/28/2015  11:20      1.2517768394413005
pump_3           8/28/2015  11:30      1.9436490774939683
pump_3           8/28/2015  11:40      1.693490472935673
pump_3           8/28/2015  11:50      2.0633259804602537
pump_3           8/28/2015  12:00      1.4870105575698773
pump_3           8/28/2015  12:10      3.5041654859862095
pump_3           8/28/2015  12:20      2.66260584459465
pump_3           8/28/2015  12:30      1.6961080077432884
pump_3           8/28/2015  12:40      1.4276280795881866
pump_3           8/28/2015  12:50      -0.1765538732878036
pump_3           8/28/2015  13:00      2.6485716615584916
pump_3           8/28/2015  13:10      1.780667640520279
pump_3           8/28/2015  13:20      1.8033314727429748
pump_3           8/28/2015  13:30      3.13581825958536
pump_3           8/28/2015  13:40      2.691101843150829
pump_3           8/28/2015  13:50      1.3801725899374513
pump_3           8/28/2015  14:00      2.377977207632802
pump_3           8/28/2015  14:10      0.14416257531150212
pump_3           8/28/2015  14:20      2.605352625369782
pump_3           8/28/2015  14:30      2.1983268290137072
pump_3           8/28/2015  14:40      4.914387469688892
pump_3           8/28/2015  14:50      2.9146974049447434
pump_3           8/28/2015  15:00      2.5176803162899386
pump_3           8/28/2015  15:10      2.9543156799412245
pump_3           8/28/2015  15:20      1.8562601725873575
pump_3           8/28/2015  15:30      2.3000218727312354
pump_3           8/28/2015  15:40      3.4863726440244016
;
pump_4           8/28/2015  08:10      2.64292186186044
pump_4           8/28/2015  08:20      3.037875912996575
pump_4           8/28/2015  08:30      2.0673281722078496
pump_4           8/28/2015  08:40      3.8595327475305234
pump_4           8/28/2015  08:50      4.078721393795536
pump_4           8/28/2015  09:00      2.0303258060765117
pump_4           8/28/2015  09:10      2.9281070583809012
pump_4           8/28/2015  09:20      0.9820438313110289
pump_4           8/28/2015  09:30      1.264805250015056
pump_4           8/28/2015  09:40      2.2335782941554077
pump_4           8/28/2015  09:50      3.369531691924865
pump_4           8/28/2015  10:00      1.5470388077442099
pump_4           8/28/2015  10:10      3.696741600296154
pump_4           8/28/2015  10:20      3.7242255127537183
pump_4           8/28/2015  10:30      3.6779071002291284
pump_4           8/28/2015  10:40      4.747530101971321
pump_4           8/28/2015  10:50      4.865564841785758
pump_4           8/28/2015  11:00      3.4932157278932707