[TITLE]
;;Project Title/Notes

[OPTIONS]
;;Option             Value
FLOW_UNITS           CMS
INFILTRATION         HORTON
FLOW_ROUTING         DYNWAVE
LINK_OFFSETS         DEPTH
MIN_SLOPE            0
ALLOW_PONDING        YES
SKIP_STEADY_STATE    NO

START_DATE           08/28/2015
START_TIME           08:00
REPORT_START_DATE    08/28/2015
REPORT_START_TIME    08:00
END_DATE             08/28/2015
END_TIME             15:50
SWEEP_START          01/01
SWEEP_END            12/31
DRY_DAYS             0
REPORT_STEP          00:01:00
WET_STEP             00:01:00
DRY_STEP             00:01:00
ROUTING_STEP         0:00:05 
RULE_STEP            00:00:00

INERTIAL_DAMPING     PARTIAL
NORMAL_FLOW_LIMITED  BOTH
FORCE_MAIN_EQUATION  H-W
VARIABLE_STEP        0.75
LENGTHENING_STEP     0
MIN_SURFAREA         1.167
MAX_TRIALS           8
HEAD_TOLERANCE       0.0015
SYS_FLOW_TOL         5
LAT_FLOW_TOL         5
MINIMUM_STEP         0.5
THREADS              1

[EVAPORATION]
;;Data Source    Parameters
;;-------------- ----------------
CONSTANT         0.0
DRY_ONLY         NO

[RAINGAGES]
;;Name           Format    Interval SCF      Source    
;;-------------- --------- ------ ------ ----------
RG1              INTENSITY 0:01     1.0      TIMESERIES Oneyear-2h      
RG2              INTENSITY 0:01     1.0      TIMESERIES Oneyear-2h      
RG3              INTENSITY 0:01     1.0      TIMESERIES Oneyear-2h      
RG4              INTENSITY 0:01     1.0      TIMESERIES Oneyear-2h      

[SUBCATCHMENTS]
;;Name           Rain Gage        Outlet           Area     %Imperv  Width    %Slope   CurbLen  SnowPack        
;;-------------- ---------------- ---------------- -------- -------- -------- -------- -------- ----------------
SC01             RG4              J16              33       100      2400     0.8      0.0                      
SC02             RG3              J13              22.75    100      1500     0.8      0                        
SC03             RG1              J10              18       100      2000     0.5      0                        
SC04             RG3              J5               6.9      100      200      0.7      0                        
SC05             RG4              J1               15.6     100      1000     0.5      0                        
SC06             RG2              J8               32.55    100      985      0.5      0                        
SC07             RG3              CSO7             4.75     100      360      0.51     0                        
SC08             RG1              CSO8             28       100      1950     0.45     0                        
SC09             RG2              CSO9             6.9      100      650      0.4      0                        
SC010            RG4              CSO10            11.75    100      650      0.5      0                        

[SUBAREAS]
;;Subcatchment   N-Imperv   N-Perv     S-Imperv   S-Perv     PctZero    RouteTo    PctRouted 
;;-------------- ---------- ---------- ---------- ---------- ---------- ---------- ----------
SC01             0.009      0.10       0.05       0.05       0.0        OUTLET    
SC02             0.009      0.1        0.05       0.05       0          OUTLET    
SC03             0.007      0.1        0.05       0.05       0          OUTLET    
SC04             0.009      0.1        0.05       0.05       0          OUTLET    
SC05             0.007      0.1        0.05       0.05       0          OUTLET    
SC06             0.01       0.1        0.05       0.05       0          OUTLET    
SC07             0.02       0.1        0.05       0.05       0          OUTLET    
SC08             0.01       0.1        0.05       0.05       0          OUTLET    
SC09             0.016      0.1        0.05       0.05       0          OUTLET    
SC010            0.008      0.1        0.05       0.05       0          OUTLET    

[INFILTRATION]
;;Subcatchment   MaxRate    MinRate    Decay      DryTime    MaxInfil  
;;-------------- ---------- ---------- ---------- ---------- ----------
SC01             3.0        0.5        4          7          0         
SC02             3.0        0.5        4          7          0         
SC03             3.0        0.5        4          7          0         
SC04             3.0        0.5        4          7          0         
SC05             3.0        0.5        4          7          0         
SC06             3.0        0.5        4          7          0         
SC07             3.0        0.5        4          7          0         
SC08             3.0        0.5        4          7          0         
SC09             3.0        0.5        4          7          0         
SC010            3.0        0.5        4          7          0         

[JUNCTIONS]
;;Name           Elevation  MaxDepth   InitDepth  SurDepth   Aponded   
;;-------------- ---------- ---------- ---------- ---------- ----------
J1               34.000000  2          0.000000   05.000000  0.000000  
J3               18.000000  2          0.000000   0.000000   0.000000  
CSO7             34.00000   1.2        0.000000   0.000000   0.000     
J5               32.00000   2.000000   0.000000   0.000000   0.000000  
CSO9             40.000000  2          0.000000   0.000000   0.000000  
J8               36.000000  3.000000   0.000000   0.000000   0.000000  
CSO8             32.000000  2          0.000000   0.00000    0.00000   
J10              29.000000  2.000000   0.000000   0.000000   0.000000  
J13              29.000000  2.000000   0.000000   0.000000   0.000000  
J15              15.000000  3.000000   0.000000   0.000000   0.000000  
J16              30.000000  2.000000   0.000000   0.000000   0.000000  
CSO10            30.000000  1.00000    0.000000   0.000000   0.000000  
J12              26.000000  2.000000   0.000000   0.000000   0.000000  
J4               33         2.0        0.00000    0.00000    0.00000   
J6               25         2          0.0000     0.0000     0.0000    
J2               25         2          0.00000    0.00000    0.00000   
J19              8          2          0.0000     0.0000     0.0000    
J9               29         2          0.0000     0.0000     0.0000    
J14              20         2          0.0000     0.0000     0.0000    
J17              20         2          0.0000     0.0000     0.0000    
J7               39         2          0.00000    0.00000    0.00000   
J11              31         2          0.0000     0.0000     0.0000    
J18              29         2          0.0000     0.0000     0.0000    

[OUTFALLS]
;;Name           Elevation  Type       Stage Data       Gated    Route To        
;;-------------- ---------- ---------- ---------------- -------- ----------------
Out_to_WWTP      6          FREE                        NO                       

[STORAGE]
;;Name           Elev.    MaxDepth   InitDepth  Shape      Curve Name/Params            N/A      Fevap    Psi      Ksat     IMD     
;;-------------- -------- ---------- ----------- ---------- ---------------------------- -------- --------          -------- --------
T5               27.000000 5.000000   0.000000   TABULAR    Tank5                        0.000000 0.000000
T4               27.000000 5.000000   0.000000   TABULAR    Tank4                        0.000000 0.000000
T6               31.000000 5.000000   0.000000   TABULAR    Tank6                        0        0       
T3               22.000000 5.000000   0.000000   TABULAR    Tank3                        0.000000 0.000000
T2               21.000000 5.000000   0.000000   TABULAR    Tank2                        0.000000 0.000000
T1               10.000000 5.000000   0.000000   TABULAR    Tank1                        0.000000 0.000000

[CONDUITS]
;;Name           From Node        To Node          Length     Roughness  InOffset   OutOffset  InitFlow   MaxFlow   
;;-------------- ---------------- ---------------- ---------- ---------- ---------- ---------- ---------- ----------
C1               J2               J3               400        0.013      0.00000    0.00000    0.00000    0         
C6               J4               J5               400        0.01       0.00000    0.00000    0.00000    0         
C2               J6               J3               400        0.012      0.00000    0.00000    0.00000    0         
C9               J7               J8               500        0.013      0.00000    0.00000    0.00000    0         
C16              J11              J10              500        0.012      0.0000     0.0000     0.00000    0         
C3               J14              J3               200        0.012      0.000      0.000      0.00000    0         
C19              J17              J15              400        0.012      0.00000    0.00000    0.00000    0         
C11              J3               J15              200        0.012      0.0000     0.0000     0.00000    0         
C20              J16              J15              400        0.012      0.0000     0.0000     0.00000    0         
C22              J18              J15              500        0.013      0.0000     0.0000     0.00000    0         
C12              J9               J12              500        0.012      0.00000    0.00000    0.00000    0         
C17              J10              J12              200        0.012      0.0000     0.0000     0.00000    0         
C10              J8               T6               310.5      0.012      0.00000    0.00000    0.00000    0         
C13              J12              T3               375        0.012      0          0          0.00000    0         
C18              J13              T2               257        0.013      0.0000     0.0000     0.00000    0         
C23              J15              T1               305        0.013      0.0000     0.0000     0.00000    0         
C4               J1               T5               278        0.012      0.0000     0.0000     0.00000    0         
C7               J5               T4               204        0.012      0.00000    0.00000    0.00000    0         
C14              J19              Out_to_WWTP      200        0.011      0.0000     0.0000     0.0000     0         
C5               CSO7             J4               100        0.014      0.0000     0.0000     0.0000     0         
C8               CSO9             J7               100        0.0185     0.0000     0.0000     0.00000    0         
C15              CSO8             J11              100        0.012      0.0000     0.0000     0.0000     0         
C21              CSO10            J18              100        0.02       0.00000    0.00000    0.00000    0         

[ORIFICES]
;;Name           From Node        To Node          Type         Offset     Qcoeff     Gated    CloseTime 
;;-------------- ---------------- ---------------- ------------ ---------- ---------- -------- ----------
V4               T4               J6               SIDE         0.00000    1          NO       0         
V5               T5               J2               SIDE         0.0000     1          NO       0         
V1               T1               J19              SIDE         0.00000    1          NO       0         
V6               T6               J9               SIDE         0.0000     1          NO       0         
V3               T3               J14              SIDE         0.0000     1          NO       0         
V2               T2               J17              SIDE         0.0000     1          NO       0         

[XSECTIONS]
;;Link           Shape        Geom1            Geom2      Geom3      Geom4      Barrels    Culvert   
;;-------------- ------------ ---------------- ---------- ---------- ---------- ---------- ----------
C1               CIRCULAR     1                0          0          0          1                    
C6               CIRCULAR     0.3              0          0          0          1                    
C2               CIRCULAR     0.6              0          0          0          1                    
C9               CIRCULAR     0.5              0          0          0          1                    
C16              CIRCULAR     2                0          0          0          1                    
C3               CIRCULAR     1                0          0          0          1                    
C19              CIRCULAR     1                0          0          0          1                    
C11              CIRCULAR     2                0          0          0          1                    
C20              CIRCULAR     2                0          0          0          1                    
C22              CIRCULAR     0.8              0          0          0          1                    
C12              CIRCULAR     2                0          0          0          1                    
C17              CIRCULAR     2                0          0          0          1                    
C10              CIRCULAR     1.5              0          0          0          1                    
C13              CIRCULAR     2                0          0          0          1                    
C18              CIRCULAR     2                0          0          0          1                    
C23              CIRCULAR     1.5              0          0          0          1                    
C4               CIRCULAR     1                0          0          0          1                    
C7               CIRCULAR     1                0          0          0          1                    
C14              CIRCULAR     2                0          0          0          1                    
C5               CIRCULAR     0.2555           0          0          0          1                    
C8               CIRCULAR     0.318            0          0          0          1                    
C15              CIRCULAR     0.453            0          0          0          1                    
C21              CIRCULAR     0.44             0          0          0          1                    
V4               RECT_CLOSED  0.0264           0.3048     0          0
V5               RECT_CLOSED  0.013            0.3048     0          0
V1               RECT_CLOSED  0.09             0.3048     0          0
V6               RECT_CLOSED  0.0581           0.3048     0          0
V3               RECT_CLOSED  0.063            0.3048     0          0
V2               RECT_CLOSED  0.0465           0.3048     0          0

[LOSSES]
;;Link           Kentry     Kexit      Kavg       Flap Gate  Seepage   
;;-------------- ---------- ---------- ---------- ---------- ----------
C1               0.00000    0.00000    0.00000    NO         0.00000   
C6               0.00000    0.00000    0.00000    NO         0.00000   
C2               0.00000    0.00000    0.00000    NO         0.00000   
C9               0.00000    0.00000    0.00000    NO         0.00000   
C16              0.00000    0.00000    0.00000    NO         0         
C3               0.00000    0.00000    0.00000    NO         0         
C19              0.00000    0.00000    0.00000    NO         0.00000   
C11              0.00000    0.00000    0.00000    NO         0.00000   
C20              0.00000    0.00000    0.00000    NO         0.0000    
C22              0.00000    0.00000    0.00000    NO         0.0000    
C12              0.00000    0.00000    0.00000    NO         0.00000   
C17              0.00000    0.00000    0.00000    NO         0.0000    
C10              0.00000    0.00000    0.00000    NO         0.00000   
C13              0.00000    0.00000    0.00000    NO         0         
C18              0.00000    0.00000    0.00000    NO         0.0000    
C23              0.00000    0.00000    0.00000    NO         0.0000    
C4               0.00000    0.00000    0.00000    NO         0.00000   
C7               0.00000    0.00000    0.00000    NO         0.00000   
C14              0.0000     0.0000     0.0000     NO         0.0000    
C5               0.00000    0.00000    0.00000    NO         0.00000   
C8               0.00000    0.00000    0.00000    NO         0.00000   
C15              0.0000     0.0000     0.0000     NO         0.0000    
C21              0.00000    0.00000    0.00000    NO         0.00000   

[CONTROLS]
RULE R0
IF SIMULATION TIME > 0
THEN ORIFICE V1 SETTING = TIMESERIES pump_0

RULE R1
IF SIMULATION TIME > 0
THEN ORIFICE V2 SETTING = TIMESERIES pump_1

RULE R2
IF SIMULATION TIME > 0
THEN ORIFICE V3 SETTING = TIMESERIES pump_2

RULE R3
IF SIMULATION TIME > 0
THEN ORIFICE V4 SETTING = TIMESERIES pump_3

RULE R4
IF SIMULATION TIME > 0
THEN ORIFICE V5 SETTING = TIMESERIES pump_4

RULE R5
IF SIMULATION TIME > 0
THEN ORIFICE V6 SETTING = TIMESERIES pump_5



[DWF]
;;Node           Constituent      Baseline   Patterns  
;;-------------- ---------------- ---------- ----------
J1               FLOW             0.01269    "" "DWF"
CSO7             FLOW             0.00656    "" "DWF"
J5               FLOW             0.00288    "" "DWF"
CSO9             FLOW             0.00443    "" "DWF"
J8               FLOW             0.02126    "" "DWF"
CSO8             FLOW             0.00518    "DWFCommercial0"
J10              FLOW             0.00871    "" "DWF"
J13              FLOW             0.01056    "" "DWF"
J16              FLOW             0.01251    "" "DWF"
CSO10            FLOW             0.00314    "" "DWF"

[CURVES]
;;Name           Type       X-Value    Y-Value   
;;-------------- ---------- ---------- ----------
Tank1            Storage    0          140       
Tank1                       5          140       
;
Tank2            Storage    0          200       
Tank2                       5          200       
;
Tank3            Storage    0          520       
Tank3                       5          520       
;
Tank4            Storage    0          100       
Tank4                       5          100       
;
Tank5            Storage    0          100       
Tank5                       5          100       
;
Tank6            Storage    0          120       
Tank6                       5          120       

[TIMESERIES]
;;Name           Date       Time       Value     
;;-------------- ---------- ---------- ----------
pump_0           8/28/2015  08:10      1.0
pump_0           8/28/2015  08:20      1.0
pump_0           8/28/2015  08:30      1.0
pump_0           8/28/2015  08:40      1.0
pump_0           8/28/2015  08:50      1.0
pump_0           8/28/2015  09:00      1.0
pump_0           8/28/2015  09:10      1.0
pump_0           8/28/2015  09:20      1.0
pump_0           8/28/2015  09:30      1.0
pump_0           8/28/2015  09:40      1.0
pump_0           8/28/2015  09:50      1.0
pump_0           8/28/2015  10:00      1.0
pump_0           8/28/2015  10:10      1.0
pump_0           8/28/2015  10:20      1.0
pump_0           8/28/2015  10:30      1.0
pump_0           8/28/2015  10:40      1.0
pump_0           8/28/2015  10:50      1.0
pump_0           8/28/2015  11:00      1.0
pump_0           8/28/2015  11:10      1.0
pump_0           8/28/2015  11:20      1.0
pump_0           8/28/2015  11:30      1.0
pump_0           8/28/2015  11:40      1.0
pump_0           8/28/2015  11:50      1.0
pump_0           8/28/2015  12:00      1.0
pump_0           8/28/2015  12:10      1.0
pump_0           8/28/2015  12:20      1.0
pump_0           8/28/2015  12:30      1.0
pump_0           8/28/2015  12:40      1.0
pump_0           8/28/2015  12:50      1.0
pump_0           8/28/2015  13:00      1.0
pump_0           8/28/2015  13:10      1.0
pump_0           8/28/2015  13:20      1.0
pump_0           8/28/2015  13:30      1.0
pump_0           8/28/2015  13:40      1.0
pump_0           8/28/2015  13:50      1.0
pump_0           8/28/2015  14:00      1.0
pump_0           8/28/2015  14:10      1.0
pump_0           8/28/2015  14:20      1.0
pump_0           8/28/2015  14:30      1.0
pump_0           8/28/2015  14:40      1.0
pump_0           8/28/2015  14:50      1.0
pump_0           8/28/2015  15:00      1.0
pump_0           8/28/2015  15:10      1.0
pump_0           8/28/2015  15:20      1.0
pump_0           8/28/2015  15:30      1.0
pump_0           8/28/2015  15:40      1.0
;
pump_1           8/28/2015  08:10      2.1859947419739822
pump_1           8/28/2015  08:20      0.9565530687993982
pump_1           8/28/2015  08:30      2.154321438508678
pump_1           8/28/2015  08:40      0.9408294386753171
pump_1           8/28/2015  08:50      0.9427267930338147
pump_1           8/28/2015  09:00      0.937321647862611
pump_1           8/28/2015  09:10      0.9872207948316571
pump_1           8/28/2015  09:20      2.0732851512819375
pump_1           8/28/2015  09:30      2.1362429045768265
pump_1           8/28/2015  09:40      0.9569521275740589
pump_1           8/28/2015  09:50      2.045701083097078
pump_1           8/28/2015  10:00      2.127374336222472
pump_1           8/28/2015  10:10      0.9421398944172449
pump_1           8/28/2015  10:20      0.9977226725102508
pump_1           8/28/2015  10:30      0.9371076285249724
pump_1           8/28/2015  10:40      2.1610740512505835
pump_1           8/28/2015  10:50      2.1943348900580033
pump_1           8/28/2015  11:00      1.010105450988631
pump_1           8/28/2015  11:10      0.9330075116068477
pump_1           8/28/2015  11:20      2.1057523073108246
pump_1           8/28/2015  11:30      2.1646274873677473
pump_1           8/28/2015  11:40      2.1285072461643115
pump_1           8/28/2015  11:50      0.9583275391240968
pump_1           8/28/2015  12:00      2.208732979566053
pump_1           8/28/2015  12:10      0.9736198287516813
pump_1           8/28/2015  12:20      0.9953842373649594
pump_1           8/28/2015  12:30      1.0107834070530661
pump_1           8/28/2015  12:40      2.1073372408637883
pump_1           8/28/2015  12:50      0.9254653595133253
pump_1           8/28/2015  13:00      2.2153721902696355
pump_1           8/28/2015  13:10      0.9835634665380565
pump_1           8/28/2015  13:20      0.9987271704762389
pump_1           8/28/2015  13:30      0.9284264076596113
pump_1           8/28/2015  13:40      0.9425174164404881
pump_1           8/28/2015  13:50      0.9306108148716508
pump_1           8/28/2015  14:00      0.9469111476436646
pump_1           8/28/2015  14:10      2.2011792058142787
pump_1           8/28/2015  14:20      2.104455062362749
pump_1           8/28/2015  14:30      0.9975364162069579
pump_1           8/28/2015  14:40      0.9440449185245641
pump_1           8/28/2015  14:50      2.1443622601118095
pump_1           8/28/2015  15:00      2.1712455245223574
pump_1           8/28/2015  15:10      2.1051960855738265
pump_1           8/28/2015  15:20      2.228165802557378
pump_1           8/28/2015  15:30      0.9307204948326323
pump_1           8/28/2015  15:40      0.9974774968040193
;
pump_2           8/28/2015  08:10      2.9830393422938655
pump_2           8/28/2015  08:20      5.936451299404376
pump_2           8/28/2015  08:30      2.762887226625416
pump_2           8/28/2015  08:40      2.8774612408228735
pump_2           8/28/2015  08:50      6.035589352542271
pump_2           8/28/2015  09:00      6.1209980848108545
pump_2           8/28/2015  09:10      2.965448902171948
pump_2           8/28/2015  09:20      5.918539023695696
pump_2           8/28/2015  09:30      5.893534564166633
pump_2           8/28/2015  09:40      5.798170546431639
pump_2           8/28/2015  09:50      2.730017345152281
pump_2           8/28/2015  10:00      2.7740875421153928
pump_2           8/28/2015  10:10      2.8450773147643003
pump_2           8/28/2015  10:20      2.931329383853443
pump_2           8/28/2015  10:30      2.9316401944634136
pump_2           8/28/2015  10:40      5.925277692585063
pump_2           8/28/2015  10:50      2.9080807132086517
pump_2           8/28/2015  11:00      2.9234439360819744
pump_2           8/28/2015  11:10      2.7678525326925127
pump_2           8/28/2015  11:20      2.857590343321354
pump_2           8/28/2015  11:30      6.12100405361788
pump_2           8/28/2015  11:40      5.746778508385818
pump_2           8/28/2015  11:50      2.7438389683984044
pump_2           8/28/2015  12:00      2.706487547326392
pump_2           8/28/2015  12:10      2.975973594595751
pump_2           8/28/2015  12:20      5.948915913127995
pump_2           8/28/2015  12:30      2.758920201790232
pump_2           8/28/2015  12:40      2.7286940138155416
pump_2           8/28/2015  12:50      5.639195713183578
pump_2           8/28/2015  13:00      5.83582255352188
pump_2           8/28/2015  13:10      5.880018571688206
pump_2           8/28/2015  13:20      2.856003512304201
pump_2           8/28/2015  13:30      2.819154819534875
pump_2           8/28/2015  13:40      2.7997538696109348
pump_2           8/28/2015  13:50      2.859310718320533
pump_2           8/28/2015  14:00      2.78026773753472
pump_2           8/28/2015  14:10      5.60502664280153
pump_2           8/28/2015  14:20      5.7482272825343985
pump_2           8/28/2015  14:30      2.9088213341227713
pump_2           8/28/2015  14:40      2.8542749857248633
pump_2           8/28/2015  14:50      5.93295671904555
pump_2           8/28/2015  15:00      6.126285316316235
pump_2           8/28/2015  15:10      5.690359332707557
pump_2           8/28/2015  15:20      5.721560191182164
pump_2           8/28/2015  15:30      6.079495016781955
pump_2           8/28/2015  15:40      2.933339240609496
;
pump_3           8/28/2015  08:10      3.0847687154596617
pump_3           8/28/2015  08:20      3.1464742823484206
pump_3           8/28/2015  08:30      3.1500392082376694
pump_3           8/28/2015  08:40      1.7847157547133268
pump_3           8/28/2015  08:50      1.6762735398328505
pump_3           8/28/2015  09:00      1.658145354692984
pump_3           8/28/2015  09:10      1.671771083916771
pump_3           8/28/2015  09:20      3.256647757249785
pump_3           8/28/2015  09:30      3.289995762430531
pump_3           8/28/2015  09:40      3.3152943347943102
pump_3           8/28/2015  09:50      1.752006496943967
pump_3           8/28/2015  10:00      3.1601971794376977
pump_3           8/28/2015  10:10      3.271346564915715
pump_3           8/28/2015  10:20      3.2074514631640105
pump_3           8/28/2015  10:30      3.256876019739071
pump_3           8/28/2015  10:40      3.3107161166129493
pump_3           8/28/2015  10:50      3.2719719354007935
pump_3           8/28/2015  11:00      1.628928729913063
pump_3           8/28/2015  11:10      3.2299442667960214
pump_3           8/28/2015  11:20      1.7572542625297418
pump_3           8/28/2015  11:30      1.7397142214976757
pump_3           8/28/2015  11:40      1.6637906734604213
pump_3           8/28/2015  11:50      3.020860652657265
pump_3           8/28/2015  12:00      3.1784347038954768
pump_3           8/28/2015  12:10      3.1546138323679007
pump_3           8/28/2015  12:20      1.704845062843902
pump_3           8/28/2015  12:30      1.674322348668242
pump_3           8/28/2015  12:40      3.3151815449735644
pump_3           8/28/2015  12:50      1.6361157440309126
pump_3           8/28/2015  13:00      1.7053830521411206
pump_3           8/28/2015  13:10      1.6847491400922954
pump_3           8/28/2015  13:20      1.663673351520723
pump_3           8/28/2015  13:30      3.2617659854617638
pump_3           8/28/2015  13:40      3.324712193668679
pump_3           8/28/2015  13:50      1.654148480985086
pump_3           8/28/2015  14:00      3.0716014885720417
pump_3           8/28/2015  14:10      1.7087524468070237
pump_3           8/28/2015  14:20      1.7494489429319906
pump_3           8/28/2015  14:30      3.135549189920711
pump_3           8/28/2015  14:40      1.7299346470564279
pump_3           8/28/2015  14:50      1.7690393038837355
pump_3           8/28/2015  15:00      1.7353141435062747
pump_3           8/28/2015  15:10      3.3252879733819265
pump_3           8/28/2015  15:20      3.1410877564773334
pump_3           8/28/2015  15:30      3.2749644339795854
pump_3           8/28/2015  15:40      3.264661367132363
;
pump_4           8/28/2015  08:10      1.0
pump_4           8/28/2015  08:20      1.0
pump_4           8/28/2015  08:30      1.0
pump_4           8/28/2015  08:40      1.0
pump_4           8/28/2015  08:50      1.0
pump_4           8/28/2015  09:00      1.0
pump_4           8/28/2015  09:10      1.0
pump_4           8/28/2015  09:20      1.0
pump_4           8/28/2015  09:30      1.0
pump_4           8/28/2015  09:40      1.0
pump_4           8/28/2015  09:50      1.0
pump_4           8/28/2015  10:00      1.0
pump_4           8/28/2015  10:10      1.0
pump_4           8/28/2015  10:20      1.0
pump_4           8/28/2015  10:30      1.0
pump_4           8/28/2015  10:40      1.0
pump_4           8/28/2015  10:50      1.0
pump_4           8/28/2015  11:00      1.0
pump_4           8/28/2015  11:10      1.0
pump_4           8/28/2015  11:20      1.0
pump_4           8/28/2015  11:30      1.0
pump_4           8/28/2015  11:40      1.0
pump_4           8/28/2015  11:50      1.0
pump_4           8/28/2015  12:00      1.0
pump_4           8/28/2015  12:10      1.0
pump_4           8/28/2015  12:20      1.0
pump_4           8/28/2015  12:30      1.0
pump_4           8/28/2015  12:40      1.0
pump_4           8/28/2015  12:50      1.0
pump_4           8/28/2015  13:00      1.0
pump_4           8/28/2015  13:10      1.0
pump_4           8/28/2015  13:20      1.0
pump_4           8/28/2015  13:30      1.0
pump_4           8/28/2015  13:40      1.0
pump_4           8/28/2015  13:50      1.0
pump_4           8/28/2015  14:00      1.0
pump_4           8/28/2015  14:10      1.0
pump_4           8/28/2015  14:20      1.0
pump_4           8/28/2015  14:30      1.0
pump_4           8/28/2015  14:40      1.0