[TITLE]
;;Project Title/Notes

[OPTIONS]
;;Option             Value
FLOW_UNITS           CMS
INFILTRATION         HORTON
FLOW_ROUTING         DYNWAVE
LINK_OFFSETS         DEPTH
MIN_SLOPE            0
ALLOW_PONDING        YES
SKIP_STEADY_STATE    NO

START_DATE           08/28/2015
START_TIME           00:00
REPORT_START_DATE    08/28/2015
REPORT_START_TIME    00:00
END_DATE             08/28/2015
END_TIME             23:40
SWEEP_START          01/01
SWEEP_END            12/31
DRY_DAYS             0
REPORT_STEP          00:01:00
WET_STEP             00:01:00
DRY_STEP             00:01:00
ROUTING_STEP         0:00:05 
RULE_STEP            00:00:00

INERTIAL_DAMPING     PARTIAL
NORMAL_FLOW_LIMITED  BOTH
FORCE_MAIN_EQUATION  H-W
VARIABLE_STEP        0.75
LENGTHENING_STEP     0
MIN_SURFAREA         1.167
MAX_TRIALS           8
HEAD_TOLERANCE       0.0015
SYS_FLOW_TOL         5
LAT_FLOW_TOL         5
MINIMUM_STEP         0.5
THREADS              1

[EVAPORATION]
;;Data Source    Parameters
;;-------------- ----------------
CONSTANT         0.0
DRY_ONLY         NO

[RAINGAGES]
;;Name           Format    Interval SCF      Source    
;;-------------- --------- ------ ------ ----------
RG1              VOLUME 0:01     1.0      TIMESERIES RG1Oneyear-2h      
RG2              VOLUME 0:01     1.0      TIMESERIES RG2Oneyear-2h      
RG3              VOLUME 0:01     1.0      TIMESERIES RG3Oneyear-2h      
RG4              VOLUME 0:01     1.0      TIMESERIES RG4Oneyear-2h      

[SUBCATCHMENTS]
;;Name           Rain Gage        Outlet           Area     %Imperv  Width    %Slope   CurbLen  SnowPack        
;;-------------- ---------------- ---------------- -------- -------- -------- -------- -------- ----------------
SC01             RG4              J16              33       100      2400     0.8      0.0                      
SC02             RG3              J13              22.75    100      1500     0.8      0                        
SC03             RG1              J10              18       100      2000     0.5      0                        
SC04             RG3              J5               6.9      100      200      0.7      0                        
SC05             RG4              J1               15.6     100      1000     0.5      0                        
SC06             RG2              J8               32.55    100      985      0.5      0                        
SC07             RG3              CSO7             4.75     100      360      0.51     0                        
SC08             RG1              CSO8             28       100      1950     0.45     0                        
SC09             RG2              CSO9             6.9      100      650      0.4      0                        
SC010            RG4              CSO10            11.75    100      650      0.5      0                        

[SUBAREAS]
;;Subcatchment   N-Imperv   N-Perv     S-Imperv   S-Perv     PctZero    RouteTo    PctRouted 
;;-------------- ---------- ---------- ---------- ---------- ---------- ---------- ----------
SC01             0.009      0.10       0.05       0.05       0.0        OUTLET    
SC02             0.009      0.1        0.05       0.05       0          OUTLET    
SC03             0.007      0.1        0.05       0.05       0          OUTLET    
SC04             0.009      0.1        0.05       0.05       0          OUTLET    
SC05             0.007      0.1        0.05       0.05       0          OUTLET    
SC06             0.01       0.1        0.05       0.05       0          OUTLET    
SC07             0.02       0.1        0.05       0.05       0          OUTLET    
SC08             0.01       0.1        0.05       0.05       0          OUTLET    
SC09             0.016      0.1        0.05       0.05       0          OUTLET    
SC010            0.008      0.1        0.05       0.05       0          OUTLET    

[INFILTRATION]
;;Subcatchment   MaxRate    MinRate    Decay      DryTime    MaxInfil  
;;-------------- ---------- ---------- ---------- ---------- ----------
SC01             3.0        0.5        4          7          0         
SC02             3.0        0.5        4          7          0         
SC03             3.0        0.5        4          7          0         
SC04             3.0        0.5        4          7          0         
SC05             3.0        0.5        4          7          0         
SC06             3.0        0.5        4          7          0         
SC07             3.0        0.5        4          7          0         
SC08             3.0        0.5        4          7          0         
SC09             3.0        0.5        4          7          0         
SC010            3.0        0.5        4          7          0         

[JUNCTIONS]
;;Name           Elevation  MaxDepth   InitDepth  SurDepth   Aponded   
;;-------------- ---------- ---------- ---------- ---------- ----------
J1               34.000000  2          0.000000   05.000000  0.000000  
J3               18.000000  2          0.000000   0.000000   0.000000  
CSO7             34.00000   1.2        0.000000   0.000000   0.000     
J5               32.00000   2.000000   0.000000   0.000000   0.000000  
CSO9             40.000000  2          0.000000   0.000000   0.000000  
J8               36.000000  3.000000   0.000000   0.000000   0.000000  
CSO8             32.000000  2          0.000000   0.00000    0.00000   
J10              29.000000  2.000000   0.000000   0.000000   0.000000  
J13              29.000000  2.000000   0.000000   0.000000   0.000000  
J15              15.000000  3.000000   0.000000   0.000000   0.000000  
J16              30.000000  2.000000   0.000000   0.000000   0.000000  
CSO10            30.000000  1.00000    0.000000   0.000000   0.000000  
J12              26.000000  2.000000   0.000000   0.000000   0.000000  
J4               33         2.0        0.00000    0.00000    0.00000   
J6               25         2          0.0000     0.0000     0.0000    
J2               25         2          0.00000    0.00000    0.00000   
J19              8          2          0.0000     0.0000     0.0000    
J9               29         2          0.0000     0.0000     0.0000    
J14              20         2          0.0000     0.0000     0.0000    
J17              20         2          0.0000     0.0000     0.0000    
J7               39         2          0.00000    0.00000    0.00000   
J11              31         2          0.0000     0.0000     0.0000    
J18              29         2          0.0000     0.0000     0.0000    

[OUTFALLS]
;;Name           Elevation  Type       Stage Data       Gated    Route To        
;;-------------- ---------- ---------- ---------------- -------- ----------------
Out_to_WWTP      6          FREE                        NO                       

[STORAGE]
;;Name           Elev.    MaxDepth   InitDepth  Shape      Curve Name/Params            N/A      Fevap    Psi      Ksat     IMD     
;;-------------- -------- ---------- ----------- ---------- ---------------------------- -------- --------          -------- --------
T5               27.000000 5.000000   0.000000   TABULAR    Tank5                        0.000000 0.000000
T4               27.000000 5.000000   0.000000   TABULAR    Tank4                        0.000000 0.000000
T6               31.000000 5.000000   0.000000   TABULAR    Tank6                        0        0       
T3               22.000000 5.000000   0.000000   TABULAR    Tank3                        0.000000 0.000000
T2               21.000000 5.000000   0.000000   TABULAR    Tank2                        0.000000 0.000000
T1               10.000000 5.000000   0.000000   TABULAR    Tank1                        0.000000 0.000000

[CONDUITS]
;;Name           From Node        To Node          Length     Roughness  InOffset   OutOffset  InitFlow   MaxFlow   
;;-------------- ---------------- ---------------- ---------- ---------- ---------- ---------- ---------- ----------
C1               J2               J3               400        0.013      0.00000    0.00000    0.00000    0         
C6               J4               J5               400        0.01       0.00000    0.00000    0.00000    0         
C2               J6               J3               400        0.012      0.00000    0.00000    0.00000    0         
C9               J7               J8               500        0.013      0.00000    0.00000    0.00000    0         
C16              J11              J10              500        0.012      0.0000     0.0000     0.00000    0         
C3               J14              J3               200        0.012      0.000      0.000      0.00000    0         
C19              J17              J15              400        0.012      0.00000    0.00000    0.00000    0         
C11              J3               J15              200        0.012      0.0000     0.0000     0.00000    0         
C20              J16              J15              400        0.012      0.0000     0.0000     0.00000    0         
C22              J18              J15              500        0.013      0.0000     0.0000     0.00000    0         
C12              J9               J12              500        0.012      0.00000    0.00000    0.00000    0         
C17              J10              J12              200        0.012      0.0000     0.0000     0.00000    0         
C10              J8               T6               310.5      0.012      0.00000    0.00000    0.00000    0         
C13              J12              T3               375        0.012      0          0          0.00000    0         
C18              J13              T2               257        0.013      0.0000     0.0000     0.00000    0         
C23              J15              T1               305        0.013      0.0000     0.0000     0.00000    0         
C4               J1               T5               278        0.012      0.0000     0.0000     0.00000    0         
C7               J5               T4               204        0.012      0.00000    0.00000    0.00000    0         
C14              J19              Out_to_WWTP      200        0.011      0.0000     0.0000     0.0000     0         
C5               CSO7             J4               100        0.014      0.0000     0.0000     0.0000     0         
C8               CSO9             J7               100        0.0185     0.0000     0.0000     0.00000    0         
C15              CSO8             J11              100        0.012      0.0000     0.0000     0.0000     0         
C21              CSO10            J18              100        0.02       0.00000    0.00000    0.00000    0         

[ORIFICES]
;;Name           From Node        To Node          Type         Offset     Qcoeff     Gated    CloseTime 
;;-------------- ---------------- ---------------- ------------ ---------- ---------- -------- ----------
V4               T4               J6               SIDE         0.00000    1          NO       0         
V5               T5               J2               SIDE         0.0000     1          NO       0         
V1               T1               J19              SIDE         0.00000    1          NO       0         
V6               T6               J9               SIDE         0.0000     1          NO       0         
V3               T3               J14              SIDE         0.0000     1          NO       0         
V2               T2               J17              SIDE         0.0000     1          NO       0         

[XSECTIONS]
;;Link           Shape        Geom1            Geom2      Geom3      Geom4      Barrels    Culvert   
;;-------------- ------------ ---------------- ---------- ---------- ---------- ---------- ----------
C1               CIRCULAR     1                0          0          0          1                    
C6               CIRCULAR     0.3              0          0          0          1                    
C2               CIRCULAR     0.6              0          0          0          1                    
C9               CIRCULAR     0.5              0          0          0          1                    
C16              CIRCULAR     2                0          0          0          1                    
C3               CIRCULAR     1                0          0          0          1                    
C19              CIRCULAR     1                0          0          0          1                    
C11              CIRCULAR     2                0          0          0          1                    
C20              CIRCULAR     2                0          0          0          1                    
C22              CIRCULAR     0.8              0          0          0          1                    
C12              CIRCULAR     2                0          0          0          1                    
C17              CIRCULAR     2                0          0          0          1                    
C10              CIRCULAR     1.5              0          0          0          1                    
C13              CIRCULAR     2                0          0          0          1                    
C18              CIRCULAR     2                0          0          0          1                    
C23              CIRCULAR     1.5              0          0          0          1                    
C4               CIRCULAR     1                0          0          0          1                    
C7               CIRCULAR     1                0          0          0          1                    
C14              CIRCULAR     2                0          0          0          1                    
C5               CIRCULAR     0.2555           0          0          0          1                    
C8               CIRCULAR     0.318            0          0          0          1                    
C15              CIRCULAR     0.453            0          0          0          1                    
C21              CIRCULAR     0.44             0          0          0          1                    
V4               RECT_CLOSED  0.0264           0.3048     0          0
V5               RECT_CLOSED  0.013            0.3048     0          0
V1               RECT_CLOSED  0.09             0.3048     0          0
V6               RECT_CLOSED  0.0581           0.3048     0          0
V3               RECT_CLOSED  0.063            0.3048     0          0
V2               RECT_CLOSED  0.0465           0.3048     0          0

[LOSSES]
;;Link           Kentry     Kexit      Kavg       Flap Gate  Seepage   
;;-------------- ---------- ---------- ---------- ---------- ----------
C1               0.00000    0.00000    0.00000    NO         0.00000   
C6               0.00000    0.00000    0.00000    NO         0.00000   
C2               0.00000    0.00000    0.00000    NO         0.00000   
C9               0.00000    0.00000    0.00000    NO         0.00000   
C16              0.00000    0.00000    0.00000    NO         0         
C3               0.00000    0.00000    0.00000    NO         0         
C19              0.00000    0.00000    0.00000    NO         0.00000   
C11              0.00000    0.00000    0.00000    NO         0.00000   
C20              0.00000    0.00000    0.00000    NO         0.0000    
C22              0.00000    0.00000    0.00000    NO         0.0000    
C12              0.00000    0.00000    0.00000    NO         0.00000   
C17              0.00000    0.00000    0.00000    NO         0.0000    
C10              0.00000    0.00000    0.00000    NO         0.00000   
C13              0.00000    0.00000    0.00000    NO         0         
C18              0.00000    0.00000    0.00000    NO         0.0000    
C23              0.00000    0.00000    0.00000    NO         0.0000    
C4               0.00000    0.00000    0.00000    NO         0.00000   
C7               0.00000    0.00000    0.00000    NO         0.00000   
C14              0.0000     0.0000     0.0000     NO         0.0000    
C5               0.00000    0.00000    0.00000    NO         0.00000   
C8               0.00000    0.00000    0.00000    NO         0.00000   
C15              0.0000     0.0000     0.0000     NO         0.0000    
C21              0.00000    0.00000    0.00000    NO         0.00000   

[CONTROLS]
RULE R0
IF SIMULATION TIME > 0
THEN ORIFICE V1 SETTING = TIMESERIES pump_0

RULE R1
IF SIMULATION TIME > 0
THEN ORIFICE V2 SETTING = TIMESERIES pump_1

RULE R2
IF SIMULATION TIME > 0
THEN ORIFICE V3 SETTING = TIMESERIES pump_2

RULE R3
IF SIMULATION TIME > 0
THEN ORIFICE V4 SETTING = TIMESERIES pump_3

RULE R4
IF SIMULATION TIME > 0
THEN ORIFICE V5 SETTING = TIMESERIES pump_4

RULE R5
IF SIMULATION TIME > 0
THEN ORIFICE V6 SETTING = TIMESERIES pump_5



[DWF]
;;Node           Constituent      Baseline   Patterns  
;;-------------- ---------------- ---------- ----------
J1               FLOW             0.01269    "" "DWF"
CSO7             FLOW             0.00656    "" "DWF"
J5               FLOW             0.00288    "" "DWF"
CSO9             FLOW             0.00443    "" "DWF"
J8               FLOW             0.02126    "" "DWF"
CSO8             FLOW             0.00518    "DWFCommercial0"
J10              FLOW             0.00871    "" "DWF"
J13              FLOW             0.01056    "" "DWF"
J16              FLOW             0.01251    "" "DWF"
CSO10            FLOW             0.00314    "" "DWF"

[CURVES]
;;Name           Type       X-Value    Y-Value   
;;-------------- ---------- ---------- ----------
Tank1            Storage    0          140       
Tank1                       5          140       
;
Tank2            Storage    0          200       
Tank2                       5          200       
;
Tank3            Storage    0          520       
Tank3                       5          520       
;
Tank4            Storage    0          100       
Tank4                       5          100       
;
Tank5            Storage    0          100       
Tank5                       5          100       
;
Tank6            Storage    0          120       
Tank6                       5          120       

[TIMESERIES]
;;Name           Date       Time       Value     
;;-------------- ---------- ---------- ----------
pump_0           8/28/2015  00:10      0.21092386170143274
pump_0           8/28/2015  00:20      0.15737727985825797
pump_0           8/28/2015  00:30      0.0
pump_0           8/28/2015  00:40      0.0
pump_0           8/28/2015  00:50      0.03703274611238277
pump_0           8/28/2015  01:00      0.1933154470453945
pump_0           8/28/2015  01:10      0.18877411171459718
pump_0           8/28/2015  01:20      0.0270155426040692
pump_0           8/28/2015  01:30      0.026005554204432003
pump_0           8/28/2015  01:40      0.07821524333079362
pump_0           8/28/2015  01:50      0.0
pump_0           8/28/2015  02:00      0.0
pump_0           8/28/2015  02:10      0.0
pump_0           8/28/2015  02:20      0.1759649200608304
pump_0           8/28/2015  02:30      0.15416541309731857
pump_0           8/28/2015  02:40      0.27301926361465906
pump_0           8/28/2015  02:50      0.10014699387941822
pump_0           8/28/2015  03:00      0.03199658726911867
pump_0           8/28/2015  03:10      0.0
pump_0           8/28/2015  03:20      0.0
pump_0           8/28/2015  03:30      0.0
pump_0           8/28/2015  03:40      0.04344880473828581
pump_0           8/28/2015  03:50      0.21921778563341607
pump_0           8/28/2015  04:00      0.0
pump_0           8/28/2015  04:10      0.20246162793260344
pump_0           8/28/2015  04:20      0.28827171473052327
pump_0           8/28/2015  04:30      0.0
pump_0           8/28/2015  04:40      0.20932131364277495
pump_0           8/28/2015  04:50      0.040913001344239946
pump_0           8/28/2015  05:00      0.017189243282873346
pump_0           8/28/2015  05:10      0.26867684771047845
pump_0           8/28/2015  05:20      0.055592103819521024
pump_0           8/28/2015  05:30      0.0
pump_0           8/28/2015  05:40      0.23892187290606579
pump_0           8/28/2015  05:50      0.24192117447231928
pump_0           8/28/2015  06:00      0.08311146270118264
pump_0           8/28/2015  06:10      0.0838176484574694
pump_0           8/28/2015  06:20      0.14412960786655082
pump_0           8/28/2015  06:30      0.0
pump_0           8/28/2015  06:40      0.18775607705372002
pump_0           8/28/2015  06:50      0.02976189838943255
pump_0           8/28/2015  07:00      0.13729523881339945
pump_0           8/28/2015  07:10      0.17449467660311055
pump_0           8/28/2015  07:20      0.26534901326322
pump_0           8/28/2015  07:30      0.0
pump_0           8/28/2015  07:40      0.0
pump_0           8/28/2015  07:50      0.07065715822316032
pump_0           8/28/2015  08:00      0.2744414742724965
pump_0           8/28/2015  08:10      0.11300127039753348
pump_0           8/28/2015  08:20      0.23131923078102934
pump_0           8/28/2015  08:30      0.0
pump_0           8/28/2015  08:40      0.05339390390043678
pump_0           8/28/2015  08:50      0.0
pump_0           8/28/2015  09:00      0.11253615088961741
pump_0           8/28/2015  09:10      0.13690394371895268
pump_0           8/28/2015  09:20      0.17594540565573785
pump_0           8/28/2015  09:30      0.29681393324881905
pump_0           8/28/2015  09:40      0.3047362305026349
pump_0           8/28/2015  09:50      0.008329193724438789
pump_0           8/28/2015  10:00      0.20774137830346312
pump_0           8/28/2015  10:10      0.22776581926985295
pump_0           8/28/2015  10:20      0.21646041924086803
pump_0           8/28/2015  10:30      0.050136938710238124
pump_0           8/28/2015  10:40      0.002045961907554306
pump_0           8/28/2015  10:50      0.29497425075728617
pump_0           8/28/2015  11:00      0.0
pump_0           8/28/2015  11:10      0.20962346267150425
pump_0           8/28/2015  11:20      0.0
pump_0           8/28/2015  11:30      0.2657671216276954
pump_0           8/28/2015  11:40      0.0
pump_0           8/28/2015  11:50      0.22391620648658983
pump_0           8/28/2015  12:00      0.0
pump_0           8/28/2015  12:10      0.17913986855725145
pump_0           8/28/2015  12:20      0.0
pump_0           8/28/2015  12:30      0.0
pump_0           8/28/2015  12:40      0.008947260717568017
pump_0           8/28/2015  12:50      0.32740544906824826
pump_0           8/28/2015  13:00      0.0
pump_0           8/28/2015  13:10      0.3080058959647174
pump_0           8/28/2015  13:20      0.324546748020151
pump_0           8/28/2015  13:30      0.21988702672276134
pump_0           8/28/2015  13:40      0.2365622321682814
pump_0           8/28/2015  13:50      0.11054095976462773
pump_0           8/28/2015  14:00      0.2797194980711308
pump_0           8/28/2015  14:10      0.0
pump_0           8/28/2015  14:20      0.0
pump_0           8/28/2015  14:30      0.0
pump_0           8/28/2015  14:40      0.6052278464205827
pump_0           8/28/2015  14:50      0.0
pump_0           8/28/2015  15:00      0.28119631180851834
pump_0           8/28/2015  15:10      0.27932953971839136
pump_0           8/28/2015  15:20      0.2535889304555244
pump_0           8/28/2015  15:30      0.21537078397661685
pump_0           8/28/2015  15:40      0.2938045370868292
pump_0           8/28/2015  15:50      0.05443157805743466
pump_0           8/28/2015  16:00      0.16041675189771568
pump_0           8/28/2015  16:10      0.1258679208650498
pump_0           8/28/2015  16:20      0.1440709510184532
pump_0           8/28/2015  16:30      0.15014702272527716
pump_0           8/28/2015  16:40      0.0
pump_0           8/28/2015  16:50      0.07821005363575806
pump_0           8/28/2015  17:00      0.26750588481392973
pump_0           8/28/2015  17:10      0.2662063264479894
pump_0           8/28/2015  17:20      0.0
pump_0           8/28/2015  17:30      0.0
pump_0           8/28/2015  17:40      0.0
pump_0           8/28/2015  17:50      0.20014780083981923
pump_0           8/28/2015  18:00      0.2870406769650708
pump_0           8/28/2015  18:10      0.13197995029304196
pump_0           8/28/2015  18:20      0.4017804975175184
pump_0           8/28/2015  18:30      0.2384988224925412
pump_0           8/28/2015  18:40      0.17650392608889218
pump_0           8/28/2015  18:50      0.264410144092631
pump_0           8/28/2015  19:00      0.1578648454144439
pump_0           8/28/2015  19:10      0.06315723426695322
pump_0           8/28/2015  19:20      0.5450157114541151
pump_0           8/28/2015  19:30      0.2105631888886917
pump_0           8/28/2015  19:40      0.34827737527761937
pump_0           8/28/2015  19:50      0.0340119319298295
pump_0           8/28/2015  20:00      0.12777087450911268
pump_0           8/28/2015  20:10      0.029618725705129603
pump_0           8/28/2015  20:20      0.27074312699656017
pump_0           8/28/2015  20:30      0.0
pump_0           8/28/2015  20:40      0.14862926289708447
pump_0           8/28/2015  20:50      0.36087247593899546
pump_0           8/28/2015  21:00      0.05764818553520712
pump_0           8/28/2015  21:10      0.0
pump_0           8/28/2015  21:20      0.1837142255201835
pump_0           8/28/2015  21:30      0.6729055258480665
pump_0           8/28/2015  21:40      0.002771979147632298
pump_0           8/28/2015  21:50      0.0991356352939023
pump_0           8/28/2015  22:00      0.29987151863841677
pump_0           8/28/2015  22:10      0.024928976543252903
pump_0           8/28/2015  22:20      0.16397837858128242
pump_0           8/28/2015  22:30      0.1416955290778415
pump_0           8/28/2015  22:40      0.27018265871646835
pump_0           8/28/2015  22:50      0.10461575964033087
pump_0           8/28/2015  23:00      0.07946322193495976
pump_0           8/28/2015  23:10      0.5577588816274568
pump_0           8/28/2015  23:20      0.14482013299443813
pump_0           8/28/2015  23:30      0.034595610952220836
;
pump_1           8/28/2015  00:10      0.31479109585069803
pump_1           8/28/2015  00:20      0.0
pump_1           8/28/2015  00:30      0.07226463498546473
pump_1           8/28/2015  00:40      0.4753619756337311
pump_1           8/28/2015  00:50      0.29542566631343264
pump_1           8/28/2015  01:00      0.11237865400755084
pump_1           8/28/2015  01:10      0.283335137057428
pump_1           8/28/2015  01:20      0.0
pump_1           8/28/2015  01:30      0.10843533848462271
pump_1           8/28/2015  01:40      0.027709491154379068
pump_1           8/28/2015  01:50      0.0780436451753432
pump_1           8/28/2015  02:00      0.2742242192383281
pump_1           8/28/2015  02:10      0.033687368724020554
pump_1           8/28/2015  02:20      0.0
pump_1           8/28/2015  02:30      0.0
pump_1           8/28/2015  02:40      0.1843482570962875
pump_1           8/28/2015  02:50      0.0
pump_1           8/28/2015  03:00      0.12400182966614928
pump_1           8/28/2015  03:10      0.0
pump_1           8/28/2015  03:20      0.04169877731239464
pump_1           8/28/2015  03:30      0.0016432670061007288
pump_1           8/28/2015  03:40      0.0
pump_1           8/28/2015  03:50      0.291776334267594
pump_1           8/28/2015  04:00      0.0
pump_1           8/28/2015  04:10      0.23971873382561112
pump_1           8/28/2015  04:20      0.4952629946069055
pump_1           8/28/2015  04:30      0.3987429467884213
pump_1           8/28/2015  04:40      0.2492855900822733
pump_1           8/28/2015  04:50      0.27430763599128966
pump_1           8/28/2015  05:00      0.058772804435911
pump_1           8/28/2015  05:10      0.23618000843771633
pump_1           8/28/2015  05:20      0.0017805435715548136
pump_1           8/28/2015  05:30      0.0
pump_1           8/28/2015  05:40      0.5372473258852016
pump_1           8/28/2015  05:50      0.20317698330184436
pump_1           8/28/2015  06:00      0.26120214527420677
pump_1           8/28/2015  06:10      0.2585919549921639
pump_1           8/28/2015  06:20      0.4571651118866812
pump_1           8/28/2015  06:30      0.20808960958587266
pump_1           8/28/2015  06:40      0.38437296668498017
pump_1           8/28/2015  06:50      0.3784645438102977
pump_1           8/28/2015  07:00      0.0
pump_1           8/28/2015  07:10      0.11186105221591758
pump_1           8/28/2015  07:20      0.24978404073648186
pump_1           8/28/2015  07:30      0.45175613915362917
pump_1           8/28/2015  07:40      0.03232341422114872
pump_1           8/28/2015  07:50      0.0
pump_1           8/28/2015  08:00      0.28248932464911986
pump_1           8/28/2015  08:10      0.0
pump_1           8/28/2015  08:20      0.1648443365147964
pump_1           8/28/2015  08:30      0.04254594164348799
pump_1           8/28/2015  08:40      0.08455348313198557
pump_1           8/28/2015  08:50      0.31502476745985153
pump_1           8/28/2015  09:00      0.2466389961758196
pump_1           8/28/2015  09:10      0.1721971034234083
pump_1           8/28/2015  09:20      0.0
pump_1           8/28/2015  09:30      0.0054295326836695315
pump_1           8/28/2015  09:40      0.0
pump_1           8/28/2015  09:50      0.09837536693137404
pump_1           8/28/2015  10:00      0.0
pump_1           8/28/2015  10:10      0.5216745992069448
pump_1           8/28/2015  10:20      0.33278961572700666
pump_1           8/28/2015  10:30      0.17096719117208847
pump_1           8/28/2015  10:40      0.6350301370261034
pump_1           8/28/2015  10:50      0.156845630919087
pump_1           8/28/2015  11:00      0.0
pump_1           8/28/2015  11:10      0.20157628969944116
pump_1           8/28/2015  11:20      0.0
pump_1           8/28/2015  11:30      0.07556355627207934
pump_1           8/28/2015  11:40      0.0
pump_1           8/28/2015  11:50      0.0