[TITLE]
;;Project Title/Notes

[OPTIONS]
;;Option             Value
FLOW_UNITS           CMS
INFILTRATION         HORTON
FLOW_ROUTING         DYNWAVE
LINK_OFFSETS         DEPTH
MIN_SLOPE            0
ALLOW_PONDING        YES
SKIP_STEADY_STATE    NO

START_DATE           08/28/2015
START_TIME           08:00
REPORT_START_DATE    08/28/2015
REPORT_START_TIME    08:00
END_DATE             08/28/2015
END_TIME             15:50
SWEEP_START          01/01
SWEEP_END            12/31
DRY_DAYS             0
REPORT_STEP          00:01:00
WET_STEP             00:01:00
DRY_STEP             00:01:00
ROUTING_STEP         0:00:05 
RULE_STEP            00:00:00

INERTIAL_DAMPING     PARTIAL
NORMAL_FLOW_LIMITED  BOTH
FORCE_MAIN_EQUATION  H-W
VARIABLE_STEP        0.75
LENGTHENING_STEP     0
MIN_SURFAREA         1.167
MAX_TRIALS           8
HEAD_TOLERANCE       0.0015
SYS_FLOW_TOL         5
LAT_FLOW_TOL         5
MINIMUM_STEP         0.5
THREADS              1

[EVAPORATION]
;;Data Source    Parameters
;;-------------- ----------------
CONSTANT         0.0
DRY_ONLY         NO

[RAINGAGES]
;;Name           Format    Interval SCF      Source    
;;-------------- --------- ------ ------ ----------
RG1              INTENSITY 0:01     1.0      TIMESERIES Oneyear-2h      
RG2              INTENSITY 0:01     1.0      TIMESERIES Oneyear-2h      
RG3              INTENSITY 0:01     1.0      TIMESERIES Oneyear-2h      
RG4              INTENSITY 0:01     1.0      TIMESERIES Oneyear-2h      

[SUBCATCHMENTS]
;;Name           Rain Gage        Outlet           Area     %Imperv  Width    %Slope   CurbLen  SnowPack        
;;-------------- ---------------- ---------------- -------- -------- -------- -------- -------- ----------------
SC01             RG4              J16              33       100      2400     0.8      0.0                      
SC02             RG3              J13              22.75    100      1500     0.8      0                        
SC03             RG1              J10              18       100      2000     0.5      0                        
SC04             RG3              J5               6.9      100      200      0.7      0                        
SC05             RG4              J1               15.6     100      1000     0.5      0                        
SC06             RG2              J8               32.55    100      985      0.5      0                        
SC07             RG3              CSO7             4.75     100      360      0.51     0                        
SC08             RG1              CSO8             28       100      1950     0.45     0                        
SC09             RG2              CSO9             6.9      100      650      0.4      0                        
SC010            RG4              CSO10            11.75    100      650      0.5      0                        

[SUBAREAS]
;;Subcatchment   N-Imperv   N-Perv     S-Imperv   S-Perv     PctZero    RouteTo    PctRouted 
;;-------------- ---------- ---------- ---------- ---------- ---------- ---------- ----------
SC01             0.009      0.10       0.05       0.05       0.0        OUTLET    
SC02             0.009      0.1        0.05       0.05       0          OUTLET    
SC03             0.007      0.1        0.05       0.05       0          OUTLET    
SC04             0.009      0.1        0.05       0.05       0          OUTLET    
SC05             0.007      0.1        0.05       0.05       0          OUTLET    
SC06             0.01       0.1        0.05       0.05       0          OUTLET    
SC07             0.02       0.1        0.05       0.05       0          OUTLET    
SC08             0.01       0.1        0.05       0.05       0          OUTLET    
SC09             0.016      0.1        0.05       0.05       0          OUTLET    
SC010            0.008      0.1        0.05       0.05       0          OUTLET    

[INFILTRATION]
;;Subcatchment   MaxRate    MinRate    Decay      DryTime    MaxInfil  
;;-------------- ---------- ---------- ---------- ---------- ----------
SC01             3.0        0.5        4          7          0         
SC02             3.0        0.5        4          7          0         
SC03             3.0        0.5        4          7          0         
SC04             3.0        0.5        4          7          0         
SC05             3.0        0.5        4          7          0         
SC06             3.0        0.5        4          7          0         
SC07             3.0        0.5        4          7          0         
SC08             3.0        0.5        4          7          0         
SC09             3.0        0.5        4          7          0         
SC010            3.0        0.5        4          7          0         

[JUNCTIONS]
;;Name           Elevation  MaxDepth   InitDepth  SurDepth   Aponded   
;;-------------- ---------- ---------- ---------- ---------- ----------
J1               34.000000  2          0.000000   05.000000  0.000000  
J3               18.000000  2          0.000000   0.000000   0.000000  
CSO7             34.00000   1.2        0.000000   0.000000   0.000     
J5               32.00000   2.000000   0.000000   0.000000   0.000000  
CSO9             40.000000  2          0.000000   0.000000   0.000000  
J8               36.000000  3.000000   0.000000   0.000000   0.000000  
CSO8             32.000000  2          0.000000   0.00000    0.00000   
J10              29.000000  2.000000   0.000000   0.000000   0.000000  
J13              29.000000  2.000000   0.000000   0.000000   0.000000  
J15              15.000000  3.000000   0.000000   0.000000   0.000000  
J16              30.000000  2.000000   0.000000   0.000000   0.000000  
CSO10            30.000000  1.00000    0.000000   0.000000   0.000000  
J12              26.000000  2.000000   0.000000   0.000000   0.000000  
J4               33         2.0        0.00000    0.00000    0.00000   
J6               25         2          0.0000     0.0000     0.0000    
J2               25         2          0.00000    0.00000    0.00000   
J19              8          2          0.0000     0.0000     0.0000    
J9               29         2          0.0000     0.0000     0.0000    
J14              20         2          0.0000     0.0000     0.0000    
J17              20         2          0.0000     0.0000     0.0000    
J7               39         2          0.00000    0.00000    0.00000   
J11              31         2          0.0000     0.0000     0.0000    
J18              29         2          0.0000     0.0000     0.0000    

[OUTFALLS]
;;Name           Elevation  Type       Stage Data       Gated    Route To        
;;-------------- ---------- ---------- ---------------- -------- ----------------
Out_to_WWTP      6          FREE                        NO                       

[STORAGE]
;;Name           Elev.    MaxDepth   InitDepth  Shape      Curve Name/Params            N/A      Fevap    Psi      Ksat     IMD     
;;-------------- -------- ---------- ----------- ---------- ---------------------------- -------- --------          -------- --------
T5               27.000000 5.000000   0.000000   TABULAR    Tank5                        0.000000 0.000000
T4               27.000000 5.000000   0.000000   TABULAR    Tank4                        0.000000 0.000000
T6               31.000000 5.000000   0.000000   TABULAR    Tank6                        0        0       
T3               22.000000 5.000000   0.000000   TABULAR    Tank3                        0.000000 0.000000
T2               21.000000 5.000000   0.000000   TABULAR    Tank2                        0.000000 0.000000
T1               10.000000 5.000000   0.000000   TABULAR    Tank1                        0.000000 0.000000

[CONDUITS]
;;Name           From Node        To Node          Length     Roughness  InOffset   OutOffset  InitFlow   MaxFlow   
;;-------------- ---------------- ---------------- ---------- ---------- ---------- ---------- ---------- ----------
C1               J2               J3               400        0.013      0.00000    0.00000    0.00000    0         
C6               J4               J5               400        0.01       0.00000    0.00000    0.00000    0         
C2               J6               J3               400        0.012      0.00000    0.00000    0.00000    0         
C9               J7               J8               500        0.013      0.00000    0.00000    0.00000    0         
C16              J11              J10              500        0.012      0.0000     0.0000     0.00000    0         
C3               J14              J3               200        0.012      0.000      0.000      0.00000    0         
C19              J17              J15              400        0.012      0.00000    0.00000    0.00000    0         
C11              J3               J15              200        0.012      0.0000     0.0000     0.00000    0         
C20              J16              J15              400        0.012      0.0000     0.0000     0.00000    0         
C22              J18              J15              500        0.013      0.0000     0.0000     0.00000    0         
C12              J9               J12              500        0.012      0.00000    0.00000    0.00000    0         
C17              J10              J12              200        0.012      0.0000     0.0000     0.00000    0         
C10              J8               T6               310.5      0.012      0.00000    0.00000    0.00000    0         
C13              J12              T3               375        0.012      0          0          0.00000    0         
C18              J13              T2               257        0.013      0.0000     0.0000     0.00000    0         
C23              J15              T1               305        0.013      0.0000     0.0000     0.00000    0         
C4               J1               T5               278        0.012      0.0000     0.0000     0.00000    0         
C7               J5               T4               204        0.012      0.00000    0.00000    0.00000    0         
C14              J19              Out_to_WWTP      200        0.011      0.0000     0.0000     0.0000     0         
C5               CSO7             J4               100        0.014      0.0000     0.0000     0.0000     0         
C8               CSO9             J7               100        0.0185     0.0000     0.0000     0.00000    0         
C15              CSO8             J11              100        0.012      0.0000     0.0000     0.0000     0         
C21              CSO10            J18              100        0.02       0.00000    0.00000    0.00000    0         

[ORIFICES]
;;Name           From Node        To Node          Type         Offset     Qcoeff     Gated    CloseTime 
;;-------------- ---------------- ---------------- ------------ ---------- ---------- -------- ----------
V4               T4               J6               SIDE         0.00000    1          NO       0         
V5               T5               J2               SIDE         0.0000     1          NO       0         
V1               T1               J19              SIDE         0.00000    1          NO       0         
V6               T6               J9               SIDE         0.0000     1          NO       0         
V3               T3               J14              SIDE         0.0000     1          NO       0         
V2               T2               J17              SIDE         0.0000     1          NO       0         

[XSECTIONS]
;;Link           Shape        Geom1            Geom2      Geom3      Geom4      Barrels    Culvert   
;;-------------- ------------ ---------------- ---------- ---------- ---------- ---------- ----------
C1               CIRCULAR     1                0          0          0          1                    
C6               CIRCULAR     0.3              0          0          0          1                    
C2               CIRCULAR     0.6              0          0          0          1                    
C9               CIRCULAR     0.5              0          0          0          1                    
C16              CIRCULAR     2                0          0          0          1                    
C3               CIRCULAR     1                0          0          0          1                    
C19              CIRCULAR     1                0          0          0          1                    
C11              CIRCULAR     2                0          0          0          1                    
C20              CIRCULAR     2                0          0          0          1                    
C22              CIRCULAR     0.8              0          0          0          1                    
C12              CIRCULAR     2                0          0          0          1                    
C17              CIRCULAR     2                0          0          0          1                    
C10              CIRCULAR     1.5              0          0          0          1                    
C13              CIRCULAR     2                0          0          0          1                    
C18              CIRCULAR     2                0          0          0          1                    
C23              CIRCULAR     1.5              0          0          0          1                    
C4               CIRCULAR     1                0          0          0          1                    
C7               CIRCULAR     1                0          0          0          1                    
C14              CIRCULAR     2                0          0          0          1                    
C5               CIRCULAR     0.2555           0          0          0          1                    
C8               CIRCULAR     0.318            0          0          0          1                    
C15              CIRCULAR     0.453            0          0          0          1                    
C21              CIRCULAR     0.44             0          0          0          1                    
V4               RECT_CLOSED  0.0264           0.3048     0          0
V5               RECT_CLOSED  0.013            0.3048     0          0
V1               RECT_CLOSED  0.09             0.3048     0          0
V6               RECT_CLOSED  0.0581           0.3048     0          0
V3               RECT_CLOSED  0.063            0.3048     0          0
V2               RECT_CLOSED  0.0465           0.3048     0          0

[LOSSES]
;;Link           Kentry     Kexit      Kavg       Flap Gate  Seepage   
;;-------------- ---------- ---------- ---------- ---------- ----------
C1               0.00000    0.00000    0.00000    NO         0.00000   
C6               0.00000    0.00000    0.00000    NO         0.00000   
C2               0.00000    0.00000    0.00000    NO         0.00000   
C9               0.00000    0.00000    0.00000    NO         0.00000   
C16              0.00000    0.00000    0.00000    NO         0         
C3               0.00000    0.00000    0.00000    NO         0         
C19              0.00000    0.00000    0.00000    NO         0.00000   
C11              0.00000    0.00000    0.00000    NO         0.00000   
C20              0.00000    0.00000    0.00000    NO         0.0000    
C22              0.00000    0.00000    0.00000    NO         0.0000    
C12              0.00000    0.00000    0.00000    NO         0.00000   
C17              0.00000    0.00000    0.00000    NO         0.0000    
C10              0.00000    0.00000    0.00000    NO         0.00000   
C13              0.00000    0.00000    0.00000    NO         0         
C18              0.00000    0.00000    0.00000    NO         0.0000    
C23              0.00000    0.00000    0.00000    NO         0.0000    
C4               0.00000    0.00000    0.00000    NO         0.00000   
C7               0.00000    0.00000    0.00000    NO         0.00000   
C14              0.0000     0.0000     0.0000     NO         0.0000    
C5               0.00000    0.00000    0.00000    NO         0.00000   
C8               0.00000    0.00000    0.00000    NO         0.00000   
C15              0.0000     0.0000     0.0000     NO         0.0000    
C21              0.00000    0.00000    0.00000    NO         0.00000   

[CONTROLS]
RULE R0
IF SIMULATION TIME > 0
THEN ORIFICE V1 SETTING = TIMESERIES pump_0

RULE R1
IF SIMULATION TIME > 0
THEN ORIFICE V2 SETTING = TIMESERIES pump_1

RULE R2
IF SIMULATION TIME > 0
THEN ORIFICE V3 SETTING = TIMESERIES pump_2

RULE R3
IF SIMULATION TIME > 0
THEN ORIFICE V4 SETTING = TIMESERIES pump_3

RULE R4
IF SIMULATION TIME > 0
THEN ORIFICE V5 SETTING = TIMESERIES pump_4

RULE R5
IF SIMULATION TIME > 0
THEN ORIFICE V6 SETTING = TIMESERIES pump_5



[DWF]
;;Node           Constituent      Baseline   Patterns  
;;-------------- ---------------- ---------- ----------
J1               FLOW             0.01269    "" "DWF"
CSO7             FLOW             0.00656    "" "DWF"
J5               FLOW             0.00288    "" "DWF"
CSO9             FLOW             0.00443    "" "DWF"
J8               FLOW             0.02126    "" "DWF"
CSO8             FLOW             0.00518    "DWFCommercial0"
J10              FLOW             0.00871    "" "DWF"
J13              FLOW             0.01056    "" "DWF"
J16              FLOW             0.01251    "" "DWF"
CSO10            FLOW             0.00314    "" "DWF"

[CURVES]
;;Name           Type       X-Value    Y-Value   
;;-------------- ---------- ---------- ----------
Tank1            Storage    0          140       
Tank1                       5          140       
;
Tank2            Storage    0          200       
Tank2                       5          200       
;
Tank3            Storage    0          520       
Tank3                       5          520       
;
Tank4            Storage    0          100       
Tank4                       5          100       
;
Tank5            Storage    0          100       
Tank5                       5          100       
;
Tank6            Storage    0          120       
Tank6                       5          120       

[TIMESERIES]
;;Name           Date       Time       Value     
;;-------------- ---------- ---------- ----------
pump_0           8/28/2015  08:10      0.048926215449769564
pump_0           8/28/2015  08:20      0.43815322718341865
pump_0           8/28/2015  08:30      0.0
pump_0           8/28/2015  08:40      0.22619121566244896
pump_0           8/28/2015  08:50      0.23488371196487098
pump_0           8/28/2015  09:00      0.8674698627562326
pump_0           8/28/2015  09:10      0.0
pump_0           8/28/2015  09:20      0.11354959559853009
pump_0           8/28/2015  09:30      0.21399691792546516
pump_0           8/28/2015  09:40      0.10375177004489666
pump_0           8/28/2015  09:50      0.22185920919707708
pump_0           8/28/2015  10:00      0.0
pump_0           8/28/2015  10:10      0.003941714686846107
pump_0           8/28/2015  10:20      0.5996922626300054
pump_0           8/28/2015  10:30      0.14861409036332432
pump_0           8/28/2015  10:40      0.12063121463509985
pump_0           8/28/2015  10:50      0.0
pump_0           8/28/2015  11:00      0.0876546169353472
pump_0           8/28/2015  11:10      0.0
pump_0           8/28/2015  11:20      0.26416060913253286
pump_0           8/28/2015  11:30      0.05405194250879189
pump_0           8/28/2015  11:40      0.0
pump_0           8/28/2015  11:50      0.22186692433393718
pump_0           8/28/2015  12:00      0.0
pump_0           8/28/2015  12:10      0.03511833534239739
pump_0           8/28/2015  12:20      0.0
pump_0           8/28/2015  12:30      0.15041933530456975
pump_0           8/28/2015  12:40      0.024012530460522694
pump_0           8/28/2015  12:50      0.0
pump_0           8/28/2015  13:00      0.5513951571680707
pump_0           8/28/2015  13:10      0.015462761727019903
pump_0           8/28/2015  13:20      0.0
pump_0           8/28/2015  13:30      0.0
pump_0           8/28/2015  13:40      0.027353814772512107
pump_0           8/28/2015  13:50      0.10762888990860509
pump_0           8/28/2015  14:00      0.0
pump_0           8/28/2015  14:10      0.0
pump_0           8/28/2015  14:20      0.03482923180966951
pump_0           8/28/2015  14:30      0.2683261645492879
pump_0           8/28/2015  14:40      0.2251818592393161
pump_0           8/28/2015  14:50      0.21677536139859158
pump_0           8/28/2015  15:00      0.17884380938122
pump_0           8/28/2015  15:10      0.0
pump_0           8/28/2015  15:20      0.26509703870849183
pump_0           8/28/2015  15:30      0.0
pump_0           8/28/2015  15:40      0.0
;
pump_1           8/28/2015  08:10      0.10911087072340571
pump_1           8/28/2015  08:20      0.0
pump_1           8/28/2015  08:30      0.027293323465510586
pump_1           8/28/2015  08:40      0.1651342232283393
pump_1           8/28/2015  08:50      0.3159724634308684
pump_1           8/28/2015  09:00      0.0
pump_1           8/28/2015  09:10      0.002094783121376135
pump_1           8/28/2015  09:20      0.0
pump_1           8/28/2015  09:30      0.0
pump_1           8/28/2015  09:40      0.0
pump_1           8/28/2015  09:50      0.23677835112274034
pump_1           8/28/2015  10:00      0.06398924390380811
pump_1           8/28/2015  10:10      0.37447825125270534
pump_1           8/28/2015  10:20      0.24044528893338987
pump_1           8/28/2015  10:30      0.0
pump_1           8/28/2015  10:40      0.012928910196125635
pump_1           8/28/2015  10:50      0.009738855613268581
pump_1           8/28/2015  11:00      0.5216377468004493
pump_1           8/28/2015  11:10      0.5251140301460846
pump_1           8/28/2015  11:20      0.07882211837873067
pump_1           8/28/2015  11:30      0.013568756054165144
pump_1           8/28/2015  11:40      0.6409263214608081
pump_1           8/28/2015  11:50      0.0
pump_1           8/28/2015  12:00      0.1866800889580191
pump_1           8/28/2015  12:10      0.18731251444553298
pump_1           8/28/2015  12:20      0.0
pump_1           8/28/2015  12:30      0.1807777045455322
pump_1           8/28/2015  12:40      0.0
pump_1           8/28/2015  12:50      0.27881514392916845
pump_1           8/28/2015  13:00      0.0
pump_1           8/28/2015  13:10      0.25240298366857633
pump_1           8/28/2015  13:20      0.6419849245796957
pump_1           8/28/2015  13:30      0.06657031668312124
pump_1           8/28/2015  13:40      0.28539542752223235
pump_1           8/28/2015  13:50      0.0
pump_1           8/28/2015  14:00      0.19490169101276741
pump_1           8/28/2015  14:10      0.13135389311061685
pump_1           8/28/2015  14:20      0.0
pump_1           8/28/2015  14:30      0.4188551666365398
pump_1           8/28/2015  14:40      0.0
pump_1           8/28/2015  14:50      0.39780796125630014
pump_1           8/28/2015  15:00      0.0
pump_1           8/28/2015  15:10      0.2332995437381611
pump_1           8/28/2015  15:20      0.26877905610196884
pump_1           8/28/2015  15:30      0.10280379211157697
pump_1           8/28/2015  15:40      0.0
;
pump_2           8/28/2015  08:10      0.3688449713394313
pump_2           8/28/2015  08:20      0.6074065438268029
pump_2           8/28/2015  08:30      0.19919830413862075
pump_2           8/28/2015  08:40      0.0
pump_2           8/28/2015  08:50      0.0
pump_2           8/28/2015  09:00      0.4313237818098659
pump_2           8/28/2015  09:10      0.0
pump_2           8/28/2015  09:20      0.18050510356667324
pump_2           8/28/2015  09:30      0.12282485904093837
pump_2           8/28/2015  09:40      0.1804215067695582
pump_2           8/28/2015  09:50      0.06456582571598944
pump_2           8/28/2015  10:00      1.0
pump_2           8/28/2015  10:10      0.8401156910375136
pump_2           8/28/2015  10:20      0.1351095215520389
pump_2           8/28/2015  10:30      0.008443645788974288
pump_2           8/28/2015  10:40      0.5443011376617836
pump_2           8/28/2015  10:50      0.30260209945720096
pump_2           8/28/2015  11:00      0.3708164276615295
pump_2           8/28/2015  11:10      0.3963512199073966
pump_2           8/28/2015  11:20      0.26761770181150263
pump_2           8/28/2015  11:30      0.0
pump_2           8/28/2015  11:40      0.665073677328278
pump_2           8/28/2015  11:50      0.0
pump_2           8/28/2015  12:00      0.24645612214324092
pump_2           8/28/2015  12:10      0.3206163645956307
pump_2           8/28/2015  12:20      1.0
pump_2           8/28/2015  12:30      0.0
pump_2           8/28/2015  12:40      0.018934087499191725
pump_2           8/28/2015  12:50      0.4134279125831329
pump_2           8/28/2015  13:00      0.23214405201692073
pump_2           8/28/2015  13:10      1.0
pump_2           8/28/2015  13:20      0.0
pump_2           8/28/2015  13:30      1.0
pump_2           8/28/2015  13:40      0.0
pump_2           8/28/2015  13:50      0.187493679696333
pump_2           8/28/2015  14:00      0.29079678495429634
pump_2           8/28/2015  14:10      0.7506666302804899
pump_2           8/28/2015  14:20      0.011817906672578454
pump_2           8/28/2015  14:30      0.4731292467744643
pump_2           8/28/2015  14:40      0.3400712635966546
pump_2           8/28/2015  14:50      0.8295781706035891
pump_2           8/28/2015  15:00      0.0
pump_2           8/28/2015  15:10      0.7145574302769057
pump_2           8/28/2015  15:20      0.682161216514944
pump_2           8/28/2015  15:30      0.49251654225174735
pump_2           8/28/2015  15:40      0.0
;
pump_3           8/28/2015  08:10      0.0
pump_3           8/28/2015  08:20      0.41463761419821576
pump_3           8/28/2015  08:30      0.4494316853350627
pump_3           8/28/2015  08:40      0.0
pump_3           8/28/2015  08:50      0.0
pump_3           8/28/2015  09:00      0.5256177109465141
pump_3           8/28/2015  09:10      0.1680522591143006
pump_3           8/28/2015  09:20      0.10433950503781961
pump_3           8/28/2015  09:30      0.8667627055094257
pump_3           8/28/2015  09:40      0.3940109691107528
pump_3           8/28/2015  09:50      0.22503184210598717
pump_3           8/28/2015  10:00      0.4935142922041414
pump_3           8/28/2015  10:10      0.35535911385591007
pump_3           8/28/2015  10:20      0.0
pump_3           8/28/2015  10:30      0.8054051910002847
pump_3           8/28/2015  10:40      0.18040733330272307
pump_3           8/28/2015  10:50      0.4437839908353519
pump_3           8/28/2015  11:00      0.17733849375321178
pump_3           8/28/2015  11:10      0.5676753593241045
pump_3           8/28/2015  11:20      0.6528054270161501
pump_3           8/28/2015  11:30      0.1331924474418712
pump_3           8/28/2015  11:40      0.6955103634691302
pump_3           8/28/2015  11:50      0.43044393473343096
pump_3           8/28/2015  12:00      0.577147422697439
pump_3           8/28/2015  12:10      0.8972008400844417
pump_3           8/28/2015  12:20      0.0
pump_3           8/28/2015  12:30      0.1102009730233489
pump_3           8/28/2015  12:40      0.8787110955214831
pump_3           8/28/2015  12:50      0.0
pump_3           8/28/2015  13:00      0.03920928643301869
pump_3           8/28/2015  13:10      0.0
pump_3           8/28/2015  13:20      0.0
pump_3           8/28/2015  13:30      0.35682826671982715
pump_3           8/28/2015  13:40      0.5718247210475713
pump_3           8/28/2015  13:50      0.0
pump_3           8/28/2015  14:00      1.0
pump_3           8/28/2015  14:10      0.29710876055075136
pump_3           8/28/2015  14:20      0.8028313764346438
pump_3           8/28/2015  14:30      1.0
pump_3           8/28/2015  14:40      0.32782948397840217
pump_3           8/28/2015  14:50      0.5130538861886973
pump_3           8/28/2015  15:00      0.0
pump_3           8/28/2015  15:10      0.07657941980667765
pump_3           8/28/2015  15:20      0.2780699601250337
pump_3           8/28/2015  15:30      0.5541045779108144
pump_3           8/28/2015  15:40      0.22518736211564316
;
pump_4           8/28/2015  08:10      0.0
pump_4           8/28/2015  08:20      0.059155191216961334
pump_4           8/28/2015  08:30      0.10931075101379305
pump_4           8/28/2015  08:40      0.1005112652316662
pump_4           8/28/2015  08:50      0.0
pump_4           8/28/2015  09:00      0.056010022131984395
pump_4           8/28/2015  09:10      0.2609816406667369
pump_4           8/28/2015  09:20      0.2273992326295185
pump_4           8/28/2015  09:30      0.0
pump_4           8/28/2015  09:40      0.27526805941048954
pump_4           8/28/2015  09:50      0.0
pump_4           8/28/2015  10:00      0.092182023763639
pump_4           8/28/2015  10:10      0.04035692108007094
pump_4           8/28/2015  10:20      0.12581513731141736
pump_4           8/28/2015  10:30      0.4718288062955367
pump_4           8/28/2015  10:40      0.0008882096379827509
pump_4           8/28/2015  10:50      0.22763690808729875
pump_4           8/28/2015  11:00      0.11487864429518006
pump_4           8/28/2015  11:10      0.18954533579168245
pump_4           8/28/2015  11:20      0.2177304043492881
pump_4           8/28/2015  11:30      0.07673594449388338
pump_4           8/28/2015  11:40      0.2095660657417399
pump_4           8/28/2015  11:50      0.0
pump_4           8/28/2015  12:00      0.07011424784341287
pump_4           8/28/2015  12:10      0.0
pump_4           8/28/2015  12:20      0.0
pump_4           8/28/2015  12:30      0.0
pump_4           8/28/2015  12:40      0.13353301491324784
pump_4           8/28/2015  12:50      0.27698029824606746
pump_4           8/28/2015  13:00      0.2300675045751393
pump_4           8/28/2015  13:10      0.20443855553240098
pump_4           8/28/2015  13:20      0.09837993262172691